*SOIL-PLANT-ATMOSPHERE MODULE OUTPUT FILE

*DSSAT Cropping System Model Ver. 4.8.5.000 -release  FEB 02, 2026 11:47:14

*RUN   1        : 1                         WHAPS048 TUDU1701    1
 MODEL          : WHAPS048 - Wheat
 EXPERIMENT     : TUDU1701 WH
 DATA PATH      :
 TREATMENT  1   : 1                         WHAPS048
  
!                                                                                                                                                                                        Soil evaporation (mm/d) by soil depth (cm):
!                                                                                                                                                                                        0-5    5-15   15-20   20-30   30-40   40-50   50-60   60-70   70-90  90-210
@YEAR DOY   DAS   SRAA  TMAXA  TMINA    REFA    EOAA    EOPA    EOSA    ETAA    EPAA    ESAA    EFAA    EMAA    EOAC    ETAC    EPAC    ESAC    EFAC    EMAC    KCAA    KBSA    KEAA    ES1D    ES2D    ES3D    ES4D    ES5D    ES6D    ES7D    ES8D    ES9D  ES10D   TRWUD   TWUPD
   16 298     1   7.00  17.00   7.00 -99.000   1.496   0.000   1.496   1.496   0.000   1.496   0.000   0.000    1.50    1.50    0.00    1.50    0.00    0.00 -99.000 -99.000 -99.000   0.275   0.206   0.073   0.112   0.097   0.081   0.070   0.062   0.107   0.414   0.000   0.000
   16 299     2   3.00  14.00   7.00 -99.000   0.619   0.000   0.619   0.619   0.000   0.619   0.000   0.000    2.12    2.12    0.00    2.12    0.00    0.00 -99.000 -99.000 -99.000   0.122   0.088   0.030   0.045   0.039   0.033   0.028   0.025   0.043   0.167   0.000   0.000
   16 300     3   4.00  12.00   3.00 -99.000   0.767   0.000   0.767   0.767   0.000   0.767   0.000   0.000    2.88    2.88    0.00    2.88    0.00    0.00 -99.000 -99.000 -99.000   0.143   0.112   0.037   0.057   0.049   0.041   0.035   0.031   0.054   0.209   0.000   0.000
   16 301     4   7.00  11.00   1.00 -99.000   1.288   0.000   1.288   1.288   0.000   1.288   0.000   0.000    4.17    4.17    0.00    4.17    0.00    0.00 -99.000 -99.000 -99.000   0.234   0.188   0.064   0.097   0.082   0.069   0.059   0.052   0.091   0.352   0.000   0.000
   16 302     5   8.00  11.00   0.00 -99.000   1.453   0.000   1.453   1.185   0.000   1.185   0.000   0.000    5.62    5.36    0.00    5.36    0.00    0.00 -99.000 -99.000 -99.000   0.978   0.128   0.021   0.020   0.011   0.007   0.004   0.003   0.004   0.008   0.000   0.000
   16 303     6   5.00  11.00   2.00 -99.000   0.925   0.000   0.925   0.925   0.000   0.925   0.000   0.000    6.55    6.28    0.00    6.28    0.00    0.00 -99.000 -99.000 -99.000   0.748   0.109   0.018   0.017   0.009   0.006   0.004   0.003   0.004   0.007   0.000   0.000
   16 304     7   8.00  11.00   0.00 -99.000   1.442   0.000   1.442   1.005   0.000   1.005   0.000   0.000    7.99    7.29    0.00    7.29    0.00    0.00 -99.000 -99.000 -99.000   0.799   0.127   0.021   0.020   0.011   0.007   0.004   0.003   0.004   0.008   0.000   0.000
   16 305     8   8.00  10.00   0.00 -99.000   1.413   0.000   1.413   0.921   0.000   0.921   0.000   0.000    9.40    8.21    0.00    8.21    0.00    0.00 -99.000 -99.000 -99.000   0.716   0.126   0.021   0.020   0.011   0.007   0.004   0.003   0.004   0.008   0.000   0.000
   16 306     9   5.00   6.00   0.00 -99.000   0.820   0.000   0.820   0.820   0.000   0.820   0.000   0.000   10.22    9.03    0.00    9.03    0.00    0.00 -99.000 -99.000 -99.000   0.622   0.121   0.020   0.020   0.011   0.006   0.004   0.003   0.004   0.008   0.000   0.000
   16 307    10   3.00   9.00   2.00 -99.000   0.530   0.000   0.530   0.530   0.000   0.530   0.000   0.000   10.75    9.56    0.00    9.56    0.00    0.00 -99.000 -99.000 -99.000   0.392   0.084   0.014   0.014   0.007   0.005   0.003   0.002   0.003   0.006   0.000   0.000
   16 308    11   5.00   8.00  -1.00 -99.000   0.836   0.000   0.836   0.740   0.000   0.740   0.000   0.000   11.59   10.30    0.00   10.30    0.00    0.00 -99.000 -99.000 -99.000   0.537   0.124   0.021   0.020   0.011   0.007   0.004   0.003   0.004   0.008   0.000   0.000
   16 309    12   6.00   8.00  -2.00 -99.000   0.989   0.000   0.989   0.684   0.000   0.684   0.000   0.000   12.58   10.98    0.00   10.98    0.00    0.00 -99.000 -99.000 -99.000   0.482   0.123   0.021   0.020   0.011   0.007   0.004   0.003   0.004   0.008   0.000   0.000
   16 310    13   3.00  12.00   2.00 -99.000   0.553   0.000   0.553   0.553   0.000   0.553   0.000   0.000   13.13   11.53    0.00   11.53    0.00    0.00 -99.000 -99.000 -99.000   0.444   0.067   0.011   0.011   0.006   0.004   0.002   0.002   0.002   0.004   0.000   0.000
   16 311    14   2.00   6.00   2.00 -99.000   0.344   0.000   0.344   0.344   0.000   0.344   0.000   0.000   13.48   11.88    0.00   11.88    0.00    0.00 -99.000 -99.000 -99.000   0.075   0.051   0.017   0.025   0.020   0.017   0.015   0.013   0.023   0.088   0.000   0.000
   16 312    15   4.00   3.00  -1.00 -99.000   0.360   0.000   0.360   0.360   0.000   0.360   0.000   0.000   13.84   12.24    0.00   12.24    0.00    0.00 -99.000 -99.000 -99.000   0.073   0.053   0.018   0.027   0.022   0.018   0.016   0.014   0.024   0.093   0.000   0.000
   16 313    16   4.00   3.00  -1.00 -99.000   0.356   0.004   0.353   0.356   0.004   0.353   0.000   0.000   14.19   12.59    0.00   12.59    0.00    0.00 -99.000 -99.000 -99.000   0.067   0.051   0.018   0.027   0.022   0.018   0.016   0.014   0.025   0.094   0.000   0.007
   16 314    17   5.00   4.00   0.00 -99.000   0.549   0.006   0.542   0.543   0.001   0.542   0.000   0.000   14.74   13.14    0.00   13.13    0.00    0.00 -99.000 -99.000 -99.000   0.107   0.078   0.027   0.042   0.033   0.028   0.025   0.022   0.038   0.143   0.000   0.007
   16 315    18   3.00   6.00   2.00 -99.000   0.515   0.006   0.509   0.510   0.001   0.509   0.000   0.000   15.26   13.65    0.01   13.64    0.00    0.00 -99.000 -99.000 -99.000   0.109   0.074   0.026   0.038   0.030   0.026   0.022   0.020   0.034   0.129   0.000   0.007
   16 316    19   2.00   5.00   1.00 -99.000   0.335   0.004   0.331   0.332   0.001   0.331   0.000   0.000   15.59   13.98    0.01   13.97    0.00    0.00 -99.000 -99.000 -99.000   0.074   0.049   0.018   0.025   0.020   0.016   0.014   0.013   0.021   0.081   0.000   0.007
   16 317    20   3.00   3.00  -1.00 -99.000   0.270   0.003   0.266   0.267   0.001   0.266   0.000   0.000   15.86   14.25    0.01   14.24    0.00    0.00 -99.000 -99.000 -99.000   0.053   0.039   0.014   0.021   0.016   0.014   0.012   0.011   0.018   0.069   0.000   0.007
   16 318    21   4.00   1.00  -2.00 -99.000   0.236   0.003   0.233   0.233   0.001   0.233   0.000   0.000   16.10   14.48    0.01   14.47    0.00    0.00 -99.000 -99.000 -99.000   0.044   0.033   0.012   0.018   0.014   0.012   0.011   0.009   0.016   0.063   0.000   0.007
   16 319    22   5.00   2.00  -3.00 -99.000   0.353   0.004   0.349   0.349   0.000   0.349   0.000   0.000   16.45   14.83    0.01   14.82    0.00    0.00 -99.000 -99.000 -99.000   0.063   0.050   0.017   0.027   0.022   0.018   0.016   0.014   0.025   0.096   0.000   0.007
   16 320    23   3.00   5.00  -1.00 -99.000   0.484   0.006   0.477   0.478   0.001   0.477   0.000   0.000   16.93   15.31    0.01   15.30    0.00    0.00 -99.000 -99.000 -99.000   0.095   0.068   0.024   0.036   0.029   0.025   0.022   0.019   0.033   0.128   0.000   0.007
   16 321    24   1.00   9.00   5.00 -99.000   0.188   0.002   0.185   0.186   0.001   0.185   0.000   0.000   17.12   15.49    0.01   15.48    0.00    0.00 -99.000 -99.000 -99.000   0.040   0.027   0.009   0.014   0.011   0.009   0.008   0.007   0.012   0.047   0.000   0.007
   16 322    25   3.00  10.00   4.00 -99.000   0.568   0.008   0.561   0.562   0.001   0.561   0.000   0.000   17.69   16.06    0.01   16.04    0.00    0.00 -99.000 -99.000 -99.000   0.112   0.082   0.029   0.043   0.034   0.028   0.025   0.022   0.038   0.148   0.000   0.007
   16 323    26   2.00  12.00   3.00 -99.000   0.384   0.005   0.378   0.381   0.003   0.378   0.000   0.000   18.07   16.44    0.01   16.42    0.00    0.00 -99.000 -99.000 -99.000   0.080   0.055   0.019   0.028   0.022   0.019   0.017   0.015   0.025   0.097   0.000   0.007
   16 324    27   1.00   7.00   0.00 -99.000   0.172   0.003   0.169   0.173   0.003   0.169   0.000   0.000   18.24   16.61    0.02   16.59    0.00    0.00 -99.000 -99.000 -99.000   0.038   0.025   0.009   0.013   0.010   0.008   0.007   0.006   0.011   0.042   0.000   0.007
   16 325    28   6.00   9.00   0.00 -99.000   1.068   0.016   1.052   1.054   0.001   1.052   0.000   0.000   19.31   17.66    0.02   17.64    0.00    0.00 -99.000 -99.000 -99.000   0.210   0.155   0.055   0.081   0.064   0.053   0.047   0.041   0.071   0.275   0.000   0.007
   16 326    29   4.00  15.00   1.00 -99.000   0.787   0.013   0.775   0.782   0.007   0.775   0.000   0.000   20.10   18.45    0.03   18.42    0.00    0.00 -99.000 -99.000 -99.000   0.145   0.112   0.039   0.060   0.048   0.040   0.035   0.031   0.054   0.210   0.001   0.007
   16 327    30   3.00  13.00   2.00 -99.000   0.576   0.010   0.565   0.579   0.014   0.565   0.000   0.000   20.68   19.02    0.04   18.98    0.00    0.00 -99.000 -99.000 -99.000   0.102   0.081   0.028   0.044   0.035   0.030   0.026   0.023   0.040   0.156   0.001   0.007
   16 328    31   4.00  11.00   0.00 -99.000   0.725   0.014   0.711   0.720   0.008   0.711   0.000   0.000   21.40   19.74    0.05   19.70    0.00    0.00 -99.000 -99.000 -99.000   0.127   0.101   0.035   0.056   0.044   0.038   0.033   0.030   0.051   0.198   0.001   0.007
   16 329    32   2.00   5.00   4.00 -99.000   0.342   0.007   0.335   0.344   0.009   0.335   0.000   0.000   21.74   20.09    0.06   20.03    0.00    0.00 -99.000 -99.000 -99.000   0.059   0.047   0.016   0.026   0.021   0.018   0.016   0.014   0.024   0.093   0.001   0.007
   16 330    33   2.00   7.00   4.00 -99.000   0.354   0.007   0.346   0.347   0.000   0.346   0.000   0.000   22.10   20.44    0.06   20.38    0.00    0.00 -99.000 -99.000 -99.000   0.061   0.049   0.017   0.027   0.022   0.018   0.016   0.014   0.025   0.097   0.000   0.007
   16 331    34   1.00   6.00   5.00 -99.000   0.176   0.004   0.172   0.173   0.001   0.172   0.000   0.000   22.27   20.61    0.06   20.55    0.00    0.00 -99.000 -99.000 -99.000   0.030   0.024   0.008   0.013   0.011   0.009   0.008   0.007   0.012   0.048   0.000   0.006
   16 332    35   3.00   7.00   0.00 -99.000   0.506   0.011   0.495   0.495   0.000   0.495   0.000   0.000   22.78   21.10    0.06   21.04    0.00    0.00 -99.000 -99.000 -99.000   0.086   0.070   0.024   0.039   0.031   0.026   0.023   0.021   0.036   0.138   0.000   0.006
   16 333    36   5.00   1.00  -3.00 -99.000   0.287   0.006   0.281   0.284   0.003   0.281   0.000   0.000   23.07   21.39    0.06   21.32    0.00    0.00 -99.000 -99.000 -99.000   0.049   0.040   0.014   0.022   0.018   0.015   0.013   0.012   0.020   0.079   0.000   0.006
   16 334    37   6.00   0.00  -6.00 -99.000   0.270   0.006   0.263   0.264   0.001   0.263   0.000   0.000   23.34   21.65    0.06   21.59    0.00    0.00 -99.000 -99.000 -99.000   0.046   0.037   0.013   0.021   0.017   0.014   0.012   0.011   0.019   0.074   0.000   0.006
   16 335    38   5.00   2.00  -7.00 -99.000   0.332   0.007   0.324   0.325   0.001   0.324   0.000   0.000   23.67   21.98    0.06   21.91    0.00    0.00 -99.000 -99.000 -99.000   0.056   0.046   0.016   0.025   0.020   0.017   0.015   0.014   0.024   0.091   0.000   0.006
   16 336    39   3.00   4.00   0.00 -99.000   0.327   0.007   0.319   0.321   0.001   0.319   0.000   0.000   23.99   22.30    0.07   22.23    0.00    0.00 -99.000 -99.000 -99.000   0.055   0.045   0.016   0.025   0.020   0.017   0.015   0.013   0.023   0.090   0.000   0.006
   16 337    40   3.00   5.00   0.00 -99.000   0.487   0.011   0.476   0.477   0.001   0.476   0.000   0.000   24.48   22.77    0.07   22.71    0.00    0.00 -99.000 -99.000 -99.000   0.084   0.067   0.023   0.037   0.030   0.025   0.022   0.020   0.034   0.133   0.000   0.006
   16 338    41   5.00   0.00  -3.00 -99.000   0.235   0.006   0.230   0.232   0.002   0.230   0.000   0.000   24.72   23.01    0.07   22.94    0.00    0.00 -99.000 -99.000 -99.000   0.041   0.032   0.011   0.018   0.014   0.012   0.011   0.010   0.016   0.064   0.000   0.006
   16 339    42   3.00   0.00  -7.00 -99.000   0.133   0.003   0.130   0.130   0.000   0.130   0.000   0.000   24.85   23.14    0.07   23.07    0.00    0.00 -99.000 -99.000 -99.000   0.023   0.018   0.006   0.010   0.008   0.007   0.006   0.005   0.009   0.036   0.000   0.006
   16 340    43   2.00  -2.00  -3.00 -99.000   0.063   0.002   0.061   0.062   0.001   0.061   0.000   0.000   24.91   23.20    0.07   23.13    0.00    0.00 -99.000 -99.000 -99.000   0.011   0.009   0.003   0.005   0.004   0.003   0.003   0.003   0.004   0.017   0.000   0.006
   16 341    44   4.00   0.00  -5.00 -99.000   0.183   0.004   0.178   0.178   0.000   0.178   0.000   0.000   25.09   23.38    0.07   23.31    0.00    0.00 -99.000 -99.000 -99.000   0.032   0.025   0.009   0.014   0.011   0.009   0.008   0.007   0.013   0.050   0.000   0.006
   16 342    45   3.00  -1.00  -3.00 -99.000   0.115   0.003   0.112   0.113   0.001   0.112   0.000   0.000   25.21   23.49    0.07   23.42    0.00    0.00 -99.000 -99.000 -99.000   0.020   0.016   0.005   0.009   0.007   0.006   0.005   0.005   0.008   0.031   0.000   0.006
   16 343    46   5.00   3.00  -4.00 -99.000   0.424   0.010   0.413   0.414   0.000   0.413   0.000   0.000   25.63   23.90    0.07   23.83    0.00    0.00 -99.000 -99.000 -99.000   0.073   0.058   0.020   0.032   0.026   0.022   0.019   0.017   0.030   0.115   0.000   0.006
   16 344    47   4.00   7.00  -4.00 -99.000   0.642   0.015   0.627   0.628   0.001   0.627   0.000   0.000   26.28   24.53    0.07   24.46    0.00    0.00 -99.000 -99.000 -99.000   0.514   0.068   0.011   0.012   0.006   0.004   0.003   0.002   0.002   0.005   0.000   0.006
   16 345    48   5.00   8.00  -2.00 -99.000   0.836   0.020   0.816   0.818   0.002   0.816   0.000   0.000   27.11   25.35    0.07   25.27    0.00    0.00 -99.000 -99.000 -99.000   0.663   0.092   0.015   0.016   0.008   0.005   0.003   0.003   0.003   0.007   0.000   0.006
   16 346    49   2.00   5.00  -3.00 -99.000   0.311   0.008   0.303   0.312   0.009   0.303   0.000   0.000   27.42   25.66    0.08   25.58    0.00    0.00 -99.000 -99.000 -99.000   0.246   0.035   0.006   0.006   0.003   0.002   0.001   0.001   0.001   0.002   0.001   0.006
   16 347    50   2.00   4.00  -1.00 -99.000   0.215   0.006   0.209   0.211   0.002   0.209   0.000   0.000   27.64   25.87    0.09   25.79    0.00    0.00 -99.000 -99.000 -99.000   0.170   0.023   0.004   0.004   0.002   0.001   0.001   0.001   0.001   0.002   0.000   0.006
   16 348    51   4.00   5.00  -3.00 -99.000   0.624   0.017   0.607   0.608   0.001   0.607   0.000   0.000   28.26   26.48    0.09   26.39    0.00    0.00 -99.000 -99.000 -99.000   0.493   0.069   0.012   0.012   0.006   0.004   0.003   0.002   0.002   0.005   0.000   0.006
   16 349    52   3.00   8.00   0.00 -99.000   0.512   0.014   0.498   0.502   0.004   0.498   0.000   0.000   28.77   26.98    0.09   26.89    0.00    0.00 -99.000 -99.000 -99.000   0.400   0.059   0.010   0.010   0.005   0.003   0.002   0.002   0.002   0.004   0.000   0.005
   16 350    53   1.00   4.00   0.00 -99.000   0.108   0.003   0.105   0.111   0.006   0.105   0.000   0.000   28.88   27.09    0.10   27.00    0.00    0.00 -99.000 -99.000 -99.000   0.084   0.013   0.002   0.002   0.001   0.001   0.000   0.000   0.000   0.001   0.001   0.005
   16 351    54   1.00   0.00  -1.00 -99.000   0.048   0.001   0.047   0.047   0.001   0.047   0.000   0.000   28.93   27.14    0.10   27.04    0.00    0.00 -99.000 -99.000 -99.000   0.037   0.006   0.001   0.001   0.001   0.000   0.000   0.000   0.000   0.000   0.000   0.005
   16 352    55   2.00   0.00  -2.00 -99.000   0.095   0.003   0.092   0.092   0.000   0.092   0.000   0.000   29.02   27.23    0.10   27.14    0.00    0.00 -99.000 -99.000 -99.000   0.073   0.011   0.002   0.002   0.001   0.001   0.000   0.000   0.000   0.001   0.000   0.005
   16 353    56   1.00   1.00  -1.00 -99.000   0.059   0.002   0.057   0.057   0.000   0.057   0.000   0.000   29.08   27.29    0.10   27.19    0.00    0.00 -99.000 -99.000 -99.000   0.045   0.007   0.001   0.001   0.001   0.000   0.000   0.000   0.000   0.001   0.000   0.005
   16 354    57   2.00   1.00  -1.00 -99.000   0.117   0.003   0.114   0.114   0.000   0.114   0.000   0.000   29.20   27.40    0.10   27.31    0.00    0.00 -99.000 -99.000 -99.000   0.090   0.014   0.002   0.002   0.001   0.001   0.001   0.000   0.001   0.001   0.000   0.005
   16 355    58   2.00   0.00  -2.00 -99.000   0.094   0.003   0.092   0.092   0.000   0.092   0.000   0.000   29.29   27.50    0.10   27.40    0.00    0.00 -99.000 -99.000 -99.000   0.072   0.012   0.002   0.002   0.001   0.001   0.000   0.000   0.000   0.001   0.000   0.005
   16 356    59   1.00  -1.00  -2.00 -99.000   0.039   0.001   0.037   0.038   0.000   0.037   0.000   0.000   29.33   27.53    0.10   27.43    0.00    0.00 -99.000 -99.000 -99.000   0.030   0.005   0.001   0.001   0.000   0.000   0.000   0.000   0.000   0.000   0.000   0.005
   16 357    60   3.00  -1.00  -3.00 -99.000   0.114   0.003   0.111   0.111   0.000   0.111   0.000   0.000   29.45   27.64    0.10   27.55    0.00    0.00 -99.000 -99.000 -99.000   0.087   0.014   0.002   0.002   0.001   0.001   0.001   0.000   0.001   0.001   0.000   0.005
   16 358    61   2.00   2.00  -2.00 -99.000   0.141   0.004   0.137   0.137   0.000   0.137   0.000   0.000   29.59   27.78    0.10   27.68    0.00    0.00 -99.000 -99.000 -99.000   0.108   0.018   0.003   0.003   0.002   0.001   0.001   0.000   0.001   0.001   0.000   0.005
   16 359    62   2.00   6.00   0.00 -99.000   0.328   0.010   0.318   0.319   0.001   0.318   0.000   0.000   29.92   28.10    0.10   28.00    0.00    0.00 -99.000 -99.000 -99.000   0.250   0.041   0.007   0.007   0.004   0.002   0.002   0.001   0.002   0.003   0.000   0.005
   16 360    63   2.00   8.00   4.00 -99.000   0.356   0.011   0.345   0.347   0.002   0.345   0.000   0.000   30.27   28.45    0.10   28.35    0.00    0.00 -99.000 -99.000 -99.000   0.269   0.046   0.008   0.008   0.004   0.003   0.002   0.001   0.002   0.003   0.000   0.005
   16 361    64   2.00  10.00   2.00 -99.000   0.359   0.011   0.348   0.350   0.002   0.348   0.000   0.000   30.63   28.80    0.10   28.69    0.00    0.00 -99.000 -99.000 -99.000   0.273   0.045   0.008   0.008   0.004   0.003   0.002   0.001   0.002   0.003   0.000   0.005
   16 362    65   3.00   4.00   0.00 -99.000   0.324   0.010   0.313   0.319   0.006   0.313   0.000   0.000   30.96   29.12    0.11   29.01    0.00    0.00 -99.000 -99.000 -99.000   0.247   0.040   0.007   0.007   0.004   0.002   0.002   0.001   0.001   0.003   0.001   0.005
   16 363    66   2.00   3.00   0.00 -99.000   0.177   0.006   0.171   0.173   0.002   0.171   0.000   0.000   31.13   29.29    0.11   29.18    0.00    0.00 -99.000 -99.000 -99.000   0.134   0.022   0.004   0.004   0.002   0.001   0.001   0.001   0.001   0.002   0.000   0.005
   16 364    67   4.00   4.00  -3.00 -99.000   0.415   0.014   0.401   0.401   0.001   0.401   0.000   0.000   31.55   29.69    0.11   29.58    0.00    0.00 -99.000 -99.000 -99.000   0.313   0.052   0.009   0.009   0.005   0.003   0.002   0.001   0.002   0.004   0.000   0.005
   16 365    68   3.00   2.00  -6.00 -99.000   0.199   0.007   0.193   0.196   0.004   0.193   0.000   0.000   31.75   29.89    0.12   29.77    0.00    0.00 -99.000 -99.000 -99.000   0.149   0.026   0.004   0.005   0.002   0.001   0.001   0.001   0.001   0.002   0.000   0.005
   16 366    69   3.00  -3.00  -5.00 -99.000   0.073   0.003   0.071   0.072   0.001   0.071   0.000   0.000   31.82   29.96    0.12   29.84    0.00    0.00 -99.000 -99.000 -99.000   0.055   0.010   0.002   0.002   0.001   0.001   0.000   0.000   0.000   0.001   0.000   0.005
   17 001    70   4.00  -2.00  -8.00 -99.000   0.114   0.004   0.111   0.111   0.000   0.111   0.000   0.000   31.93   30.07    0.12   29.95    0.00    0.00 -99.000 -99.000 -99.000   0.085   0.015   0.003   0.003   0.001   0.001   0.001   0.000   0.001   0.001   0.000   0.005
   17 002    71   1.00   0.00  -9.00 -99.000   0.042   0.001   0.041   0.042   0.001   0.041   0.000   0.000   31.98   30.11    0.12   29.99    0.00    0.00 -99.000 -99.000 -99.000   0.031   0.006   0.001   0.001   0.001   0.000   0.000   0.000   0.000   0.000   0.000   0.005
   17 003    72   2.00   0.00  -2.00 -99.000   0.094   0.003   0.091   0.092   0.001   0.091   0.000   0.000   32.07   30.20    0.12   30.08    0.00    0.00 -99.000 -99.000 -99.000   0.070   0.013   0.002   0.002   0.001   0.001   0.000   0.000   0.000   0.001   0.000   0.005
   17 004    73   1.00   0.00  -1.00 -99.000   0.048   0.002   0.046   0.046   0.000   0.046   0.000   0.000   32.12   30.25    0.12   30.13    0.00    0.00 -99.000 -99.000 -99.000   0.035   0.006   0.001   0.001   0.001   0.000   0.000   0.000   0.000   0.000   0.000   0.005
   17 005    74   2.00   0.00  -8.00 -99.000   0.086   0.003   0.083   0.083   0.000   0.083   0.000   0.000   32.20   30.33    0.12   30.21    0.00    0.00 -99.000 -99.000 -99.000   0.063   0.012   0.002   0.002   0.001   0.001   0.000   0.000   0.000   0.001   0.000   0.004
   17 006    75   4.00  -7.00 -18.00 -99.000   0.033   0.001   0.032   0.033   0.001   0.032   0.000   0.000   32.24   30.37    0.12   30.25    0.00    0.00 -99.000 -99.000 -99.000   0.024   0.005   0.001   0.001   0.000   0.000   0.000   0.000   0.000   0.000   0.000   0.004
   17 007    76   2.00  -5.00 -18.00 -99.000   0.025   0.001   0.025   0.025   0.001   0.025   0.000   0.000   32.26   30.39    0.12   30.27    0.00    0.00 -99.000 -99.000 -99.000   0.019   0.004   0.001   0.001   0.000   0.000   0.000   0.000   0.000   0.000   0.000   0.004
   17 008    77   2.00  -1.00  -5.00 -99.000   0.073   0.003   0.071   0.072   0.001   0.071   0.000   0.000   32.34   30.46    0.12   30.34    0.00    0.00 -99.000 -99.000 -99.000   0.054   0.010   0.002   0.002   0.001   0.001   0.000   0.000   0.000   0.001   0.000   0.004
   17 009    78   1.00  -1.00  -4.00 -99.000   0.037   0.001   0.036   0.037   0.001   0.036   0.000   0.000   32.37   30.50    0.12   30.38    0.00    0.00 -99.000 -99.000 -99.000   0.027   0.005   0.001   0.001   0.000   0.000   0.000   0.000   0.000   0.000   0.000   0.004
   17 010    79   3.00  -2.00  -7.00 -99.000   0.087   0.003   0.084   0.084   0.000   0.084   0.000   0.000   32.46   30.58    0.12   30.46    0.00    0.00 -99.000 -99.000 -99.000   0.064   0.012   0.002   0.002   0.001   0.001   0.000   0.000   0.000   0.001   0.000   0.004
   17 011    80   1.00   2.00  -8.00 -99.000   0.064   0.002   0.062   0.063   0.001   0.062   0.000   0.000   32.52   30.65    0.12   30.52    0.00    0.00 -99.000 -99.000 -99.000   0.048   0.009   0.001   0.002   0.001   0.000   0.000   0.000   0.000   0.001   0.000   0.004
   17 012    81   2.00   3.00   1.00 -99.000   0.179   0.006   0.173   0.174   0.001   0.173   0.000   0.000   32.70   30.82    0.13   30.70    0.00    0.00 -99.000 -99.000 -99.000   0.033   0.024   0.008   0.013   0.011   0.009   0.008   0.007   0.012   0.047   0.000   0.004
   17 013    82   2.00   4.00  -2.00 -99.000   0.216   0.008   0.208   0.209   0.001   0.208   0.000   0.000   32.92   31.03    0.13   30.90    0.00    0.00 -99.000 -99.000 -99.000   0.043   0.029   0.010   0.016   0.012   0.011   0.009   0.008   0.014   0.056   0.000   0.004
   17 014    83   2.00   0.00  -2.00 -99.000   0.096   0.003   0.092   0.094   0.002   0.092   0.000   0.000   33.01   31.12    0.13   31.00    0.00    0.00 -99.000 -99.000 -99.000   0.018   0.013   0.004   0.007   0.006   0.005   0.004   0.004   0.007   0.025   0.000   0.004
   17 015    84   3.00  -1.00  -4.00 -99.000   0.114   0.004   0.110   0.110   0.000   0.110   0.000   0.000   33.13   31.23    0.13   31.11    0.00    0.00 -99.000 -99.000 -99.000   0.020   0.015   0.005   0.009   0.007   0.006   0.005   0.005   0.008   0.030   0.000   0.004
   17 016    85   3.00  -2.00  -6.00 -99.000   0.090   0.003   0.087   0.087   0.000   0.087   0.000   0.000   33.22   31.32    0.13   31.19    0.00    0.00 -99.000 -99.000 -99.000   0.016   0.012   0.004   0.007   0.005   0.005   0.004   0.004   0.006   0.024   0.000   0.004
   17 017    86   4.00  -3.00  -8.00 -99.000   0.094   0.003   0.091   0.092   0.000   0.091   0.000   0.000   33.31   31.41    0.13   31.28    0.00    0.00 -99.000 -99.000 -99.000   0.016   0.013   0.004   0.007   0.006   0.005   0.004   0.004   0.007   0.025   0.000   0.004
   17 018    87   3.00  -3.00  -6.00 -99.000   0.073   0.003   0.071   0.071   0.001   0.071   0.000   0.000   33.39   31.48    0.13   31.35    0.00    0.00 -99.000 -99.000 -99.000   0.013   0.010   0.003   0.006   0.004   0.004   0.003   0.003   0.005   0.020   0.000   0.004
   17 019    88   6.00  -3.00  -9.00 -99.000   0.139   0.005   0.134   0.135   0.000   0.134   0.000   0.000   33.53   31.62    0.13   31.49    0.00    0.00 -99.000 -99.000 -99.000   0.024   0.019   0.007   0.010   0.008   0.007   0.006   0.006   0.010   0.037   0.000   0.004
   17 020    89   6.00  -2.00 -11.00 -99.000   0.165   0.006   0.159   0.160   0.001   0.159   0.000   0.000   33.69   31.78    0.13   31.65    0.00    0.00 -99.000 -99.000 -99.000   0.028   0.023   0.008   0.012   0.010   0.008   0.007   0.007   0.011   0.044   0.000   0.004
   17 021    90   7.00  -5.00 -15.00 -99.000   0.096   0.003   0.093   0.094   0.001   0.093   0.000   0.000   33.79   31.87    0.13   31.74    0.00    0.00 -99.000 -99.000 -99.000   0.016   0.013   0.005   0.007   0.006   0.005   0.004   0.004   0.007   0.026   0.000   0.004
   17 022    91   5.00  -6.00 -15.00 -99.000   0.056   0.002   0.054   0.054   0.001   0.054   0.000   0.000   33.84   31.93    0.13   31.79    0.00    0.00 -99.000 -99.000 -99.000   0.010   0.008   0.003   0.004   0.003   0.003   0.003   0.002   0.004   0.015   0.000   0.004
   17 023    92   5.00  -8.00 -17.00 -99.000   0.035   0.001   0.034   0.034   0.001   0.034   0.000   0.000   33.88   31.96    0.13   31.83    0.00    0.00 -99.000 -99.000 -99.000   0.006   0.005   0.002   0.003   0.002   0.002   0.002   0.001   0.002   0.009   0.000   0.004
   17 024    93   2.00  -7.00 -12.00 -99.000   0.019   0.001   0.018   0.019   0.001   0.018   0.000   0.000   33.90   31.98    0.13   31.85    0.00    0.00 -99.000 -99.000 -99.000   0.003   0.003   0.001   0.001   0.001   0.001   0.001   0.001   0.001   0.005   0.000   0.004
   17 025    94   2.00  -3.00 -10.00 -99.000   0.046   0.002   0.044   0.044   0.000   0.044   0.000   0.000   33.94   32.02    0.13   31.89    0.00    0.00 -99.000 -99.000 -99.000   0.008   0.006   0.002   0.003   0.003   0.002   0.002   0.002   0.003   0.012   0.000   0.004
   17 026    95   5.00  -1.00  -9.00 -99.000   0.175   0.006   0.168   0.169   0.001   0.168   0.000   0.000   34.12   32.19    0.14   32.06    0.00    0.00 -99.000 -99.000 -99.000   0.030   0.024   0.008   0.013   0.011   0.009   0.008   0.007   0.012   0.047   0.000   0.004
   17 027    96   7.00   0.00 -12.00 -99.000   0.286   0.010   0.276   0.276   0.001   0.276   0.000   0.000   34.40   32.47    0.14   32.33    0.00    0.00 -99.000 -99.000 -99.000   0.049   0.039   0.013   0.022   0.017   0.015   0.013   0.011   0.020   0.077   0.000   0.004
   17 028    97   6.00  -1.00 -11.00 -99.000   0.203   0.007   0.196   0.197   0.001   0.196   0.000   0.000   34.60   32.67    0.14   32.53    0.00    0.00 -99.000 -99.000 -99.000   0.034   0.028   0.010   0.015   0.012   0.010   0.009   0.008   0.014   0.055   0.000   0.004
   17 029    98   7.00   1.00 -12.00 -99.000   0.350   0.013   0.338   0.339   0.001   0.338   0.000   0.000   34.96   33.01    0.14   32.87    0.00    0.00 -99.000 -99.000 -99.000   0.059   0.048   0.016   0.026   0.021   0.018   0.016   0.014   0.024   0.095   0.000   0.004
   17 030    99   5.00   1.00 -10.00 -99.000   0.258   0.009   0.249   0.251   0.002   0.249   0.000   0.000   35.21   33.26    0.14   33.12    0.00    0.00 -99.000 -99.000 -99.000   0.043   0.035   0.012   0.020   0.016   0.013   0.012   0.010   0.018   0.070   0.000   0.004
   17 031   100   5.00   4.00   0.00 -99.000   0.543   0.019   0.524   0.525   0.001   0.524   0.000   0.000   35.76   33.78    0.14   33.64    0.00    0.00 -99.000 -99.000 -99.000   0.101   0.074   0.025   0.040   0.032   0.027   0.024   0.021   0.037   0.143   0.000   0.004
   17 032   101   3.00   2.00   0.00 -99.000   0.221   0.008   0.213   0.216   0.004   0.213   0.000   0.000   35.98   34.00    0.15   33.85    0.00    0.00 -99.000 -99.000 -99.000   0.041   0.030   0.010   0.016   0.013   0.011   0.010   0.009   0.015   0.058   0.000   0.003
   17 033   102   5.00   4.00   0.00 -99.000   0.547   0.021   0.526   0.527   0.001   0.526   0.000   0.000   36.52   34.53    0.15   34.38    0.00    0.00 -99.000 -99.000 -99.000   0.098   0.074   0.025   0.041   0.033   0.028   0.024   0.022   0.037   0.145   0.000   0.003
   17 034   103   3.00   4.00  -2.00 -99.000   0.319   0.013   0.306   0.310   0.004   0.306   0.000   0.000   36.84   34.84    0.15   34.69    0.00    0.00 -99.000 -99.000 -99.000   0.056   0.043   0.015   0.024   0.019   0.016   0.014   0.013   0.022   0.085   0.000   0.003
   17 035   104   6.00   6.00  -1.00 -99.000   0.979   0.040   0.940   0.943   0.003   0.940   0.000   0.000   37.82   35.78    0.15   35.62    0.00    0.00 -99.000 -99.000 -99.000   0.168   0.132   0.046   0.073   0.059   0.050   0.044   0.039   0.067   0.262   0.000   0.003
   17 036   105   7.00   8.00  -1.00 -99.000   1.183   0.052   1.132   1.142   0.010   1.132   0.000   0.000   39.01   36.92    0.16   36.76    0.00    0.00 -99.000 -99.000 -99.000   0.201   0.159   0.055   0.089   0.071   0.060   0.053   0.047   0.081   0.316   0.001   0.003
   17 037   106   3.00   3.00   0.00 -99.000   0.267   0.013   0.254   0.274   0.020   0.254   0.000   0.000   39.27   37.19    0.18   37.01    0.00    0.00 -99.000 -99.000 -99.000   0.208   0.028   0.005   0.005   0.003   0.002   0.001   0.001   0.001   0.002   0.002   0.003
   17 038   107   5.00   5.00   0.00 -99.000   0.808   0.039   0.768   0.770   0.002   0.768   0.000   0.000   40.08   37.96    0.19   37.78    0.00    0.00 -99.000 -99.000 -99.000   0.625   0.086   0.015   0.015   0.008   0.005   0.003   0.002   0.003   0.006   0.000   0.003
   17 039   108   4.00   2.00  -2.00 -99.000   0.282   0.014   0.268   0.275   0.007   0.268   0.000   0.000   40.36   38.24    0.19   38.05    0.00    0.00 -99.000 -99.000 -99.000   0.215   0.032   0.005   0.005   0.003   0.002   0.001   0.001   0.001   0.002   0.001   0.003
   17 040   109   4.00   0.00  -2.00 -99.000   0.189   0.010   0.179   0.181   0.002   0.179   0.000   0.000   40.55   38.42    0.19   38.23    0.00    0.00 -99.000 -99.000 -99.000   0.143   0.021   0.004   0.004   0.002   0.001   0.001   0.001   0.001   0.002   0.000   0.003
   17 041   110   3.00  -1.00  -3.00 -99.000   0.114   0.006   0.108   0.109   0.001   0.108   0.000   0.000   40.67   38.53    0.20   38.33    0.00    0.00 -99.000 -99.000 -99.000   0.086   0.013   0.002   0.002   0.001   0.001   0.001   0.000   0.000   0.001   0.000   0.003
   17 042   111   9.00   4.00  -5.00 -99.000   0.909   0.047   0.862   0.862   0.000   0.862   0.000   0.000   41.57   39.39    0.20   39.20    0.00    0.00 -99.000 -99.000 -99.000   0.686   0.105   0.018   0.018   0.010   0.006   0.004   0.003   0.004   0.008   0.000   0.003
   17 043   112   4.00   0.00  -1.00 -99.000   0.191   0.010   0.181   0.182   0.001   0.181   0.000   0.000   41.77   39.57    0.20   39.38    0.00    0.00 -99.000 -99.000 -99.000   0.142   0.024   0.004   0.004   0.002   0.001   0.001   0.001   0.001   0.002   0.000   0.003
   17 044   113   4.00   4.00  -1.00 -99.000   0.424   0.022   0.403   0.403   0.000   0.403   0.000   0.000   42.19   39.98    0.20   39.78    0.00    0.00 -99.000 -99.000 -99.000   0.314   0.053   0.009   0.009   0.005   0.003   0.002   0.001   0.002   0.004   0.000   0.003
   17 045   114   9.00   7.00  -4.00 -99.000   1.422   0.076   1.346   0.873   0.005   0.868   0.000   0.000   43.61   40.85    0.20   40.65    0.00    0.00 -99.000 -99.000 -99.000   0.671   0.118   0.020   0.021   0.011   0.007   0.005   0.003   0.004   0.009   0.000   0.003
   17 046   115   9.00   9.00  -5.00 -99.000   1.454   0.078   1.376   0.808   0.002   0.806   0.000   0.000   45.07   41.66    0.20   41.45    0.00    0.00 -99.000 -99.000 -99.000   0.609   0.117   0.020   0.021   0.011   0.007   0.005   0.003   0.004   0.009   0.000   0.003
   17 047   116  10.00  13.00  -3.00 -99.000   1.771   0.096   1.675   0.843   0.003   0.841   0.000   0.000   46.84   42.50    0.21   42.29    0.00    0.00 -99.000 -99.000 -99.000   0.645   0.117   0.020   0.021   0.011   0.007   0.005   0.003   0.004   0.009   0.000   0.001
   17 048   117   4.00   4.00   0.00 -99.000   0.429   0.026   0.402   0.482   0.079   0.402   0.000   0.000   47.26   42.98    0.29   42.70    0.00    0.00 -99.000 -99.000 -99.000   0.325   0.046   0.008   0.008   0.004   0.003   0.002   0.001   0.002   0.003   0.008   0.003
   17 049   118   5.00   6.00  -2.00 -99.000   0.803   0.051   0.752   0.757   0.005   0.752   0.000   0.000   48.07   43.74    0.29   43.45    0.00    0.00 -99.000 -99.000 -99.000   0.136   0.104   0.036   0.058   0.047   0.040   0.035   0.031   0.054   0.210   0.000   0.003
   17 050   119   7.00   5.00  -3.00 -99.000   1.087   0.073   1.014   1.029   0.015   1.014   0.000   0.000   49.15   44.77    0.31   44.46    0.00    0.00 -99.000 -99.000 -99.000   0.833   0.108   0.018   0.019   0.010   0.006   0.004   0.003   0.004   0.008   0.001   0.003
   17 051   120   7.00   8.00   2.00 -99.000   1.217   0.084   1.133   1.116   0.016   1.100   0.000   0.000   50.37   45.88    0.32   45.56    0.00    0.00 -99.000 -99.000 -99.000   0.902   0.119   0.020   0.021   0.011   0.007   0.005   0.003   0.004   0.009   0.002   0.003
   17 052   121   3.00   9.00   6.00 -99.000   0.555   0.042   0.514   0.538   0.025   0.514   0.000   0.000   50.93   46.42    0.35   46.08    0.00    0.00 -99.000 -99.000 -99.000   0.100   0.072   0.025   0.039   0.031   0.026   0.023   0.021   0.036   0.140   0.002   0.003
   17 053   122   4.00  11.00   7.00 -99.000   0.780   0.061   0.719   0.727   0.008   0.719   0.000   0.000   51.71   47.15    0.36   46.79    0.00    0.00 -99.000 -99.000 -99.000   0.141   0.101   0.035   0.055   0.044   0.037   0.033   0.029   0.050   0.196   0.001   0.003
   17 054   123   8.00  16.00   6.00 -99.000   1.655   0.139   1.516   1.535   0.019   1.516   0.000   0.000   53.36   48.68    0.37   48.31    0.00    0.00 -99.000 -99.000 -99.000   0.282   0.212   0.073   0.117   0.094   0.079   0.070   0.062   0.108   0.419   0.002   0.003
   17 055   124   6.00  11.00  -1.00 -99.000   1.060   0.101   0.959   1.071   0.112   0.959   0.000   0.000   54.42   49.76    0.49   49.27    0.00    0.00 -99.000 -99.000 -99.000   0.173   0.134   0.046   0.074   0.060   0.051   0.045   0.040   0.069   0.267   0.011   0.003
   17 056   125  12.00   8.00  -3.00 -99.000   1.958   0.204   1.754   1.169   0.071   1.098   0.000   0.000   56.38   50.92    0.56   50.37    0.00    0.00 -99.000 -99.000 -99.000   0.899   0.119   0.020   0.021   0.011   0.007   0.005   0.003   0.004   0.009   0.007   0.003
   17 057   126   8.00  10.00  -1.00 -99.000   1.379   0.152   1.227   1.085   0.074   1.011   0.000   0.000   57.76   52.01    0.63   51.38    0.00    0.00 -99.000 -99.000 -99.000   0.813   0.119   0.020   0.021   0.011   0.007   0.005   0.003   0.004   0.009   0.007   0.003
   17 058   127  12.00  13.00  -3.00 -99.000   2.117   0.257   1.860   1.015   0.083   0.932   0.000   0.000   59.88   53.02    0.71   52.31    0.00    0.00 -99.000 -99.000 -99.000   0.735   0.118   0.020   0.021   0.011   0.007   0.005   0.003   0.004   0.009   0.008   0.004
   17 059   128   3.00   6.00   0.00 -99.000   0.482   0.067   0.415   0.616   0.201   0.415   0.000   0.000   60.36   53.64    0.91   52.73    0.00    0.00 -99.000 -99.000 -99.000   0.078   0.059   0.021   0.032   0.025   0.021   0.019   0.017   0.029   0.113   0.020   0.004
   17 060   129   7.00   7.00   2.00 -99.000   1.201   0.171   1.029   1.046   0.017   1.029   0.000   0.000   61.56   54.69    0.93   53.76    0.00    0.00 -99.000 -99.000 -99.000   0.235   0.148   0.052   0.076   0.060   0.050   0.044   0.039   0.067   0.260   0.002   0.004
   17 061   130  13.00  10.00  -1.00 -99.000   2.264   0.348   1.916   1.955   0.039   1.916   0.000   0.000   63.82   56.64    0.97   55.67    0.00    0.00 -99.000 -99.000 -99.000   0.389   0.275   0.097   0.145   0.115   0.097   0.085   0.075   0.130   0.507   0.004   0.004
   17 062   131   9.00   9.00  -2.00 -99.000   1.505   0.255   1.250   1.406   0.156   1.250   0.000   0.000   65.33   58.05    1.13   56.92    0.00    0.00 -99.000 -99.000 -99.000   0.236   0.177   0.062   0.096   0.077   0.065   0.057   0.051   0.088   0.341   0.016   0.004
   17 063   132   9.00  16.00   2.00 -99.000   1.754   0.316   1.438   1.557   0.118   1.438   0.000   0.000   67.08   59.60    1.24   58.36    0.00    0.00 -99.000 -99.000 -99.000   0.261   0.202   0.070   0.112   0.090   0.076   0.067   0.059   0.102   0.399   0.012   0.004
   17 064   133   9.00   9.00   2.00 -99.000   1.558   0.315   1.242   1.561   0.318   1.242   0.000   0.000   68.64   61.16    1.56   59.60    0.00    0.00 -99.000 -99.000 -99.000   0.229   0.174   0.061   0.096   0.077   0.065   0.057   0.051   0.088   0.343   0.032   0.005
   17 065   134   7.00   8.00   3.00 -99.000   1.203   0.265   0.938   1.048   0.110   0.938   0.000   0.000   69.84   62.21    1.67   60.54    0.00    0.00 -99.000 -99.000 -99.000   0.177   0.131   0.046   0.072   0.058   0.049   0.043   0.038   0.066   0.257   0.011   0.005
   17 066   135   7.00   6.00   0.00 -99.000   1.118   0.265   0.853   0.923   0.070   0.853   0.000   0.000   70.96   63.13    1.74   61.39    0.00    0.00 -99.000 -99.000 -99.000   0.156   0.120   0.042   0.066   0.053   0.045   0.039   0.035   0.061   0.236   0.007   0.005
   17 067   136   7.00   8.00   0.00 -99.000   1.156   0.280   0.875   0.937   0.062   0.875   0.000   0.000   72.12   64.07    1.80   62.27    0.00    0.00 -99.000 -99.000 -99.000   0.180   0.122   0.042   0.066   0.053   0.045   0.039   0.035   0.060   0.233   0.006   0.005
   17 068   137   3.00   9.00   7.00 -99.000   0.550   0.139   0.411   0.517   0.106   0.411   0.000   0.000   72.67   64.59    1.91   62.68    0.00    0.00 -99.000 -99.000 -99.000   0.092   0.062   0.022   0.030   0.024   0.020   0.017   0.015   0.026   0.103   0.011   0.005
   17 069   138  11.00   8.00  -1.00 -99.000   1.810   0.474   1.336   1.356   0.020   1.336   0.000   0.000   74.48   65.94    1.93   64.02    0.00    0.00 -99.000 -99.000 -99.000   0.267   0.202   0.070   0.102   0.080   0.067   0.059   0.052   0.089   0.347   0.002   0.006
   17 070   139  14.00   9.00  -3.00 -99.000   2.269   0.617   1.653   1.815   0.162   1.653   0.000   0.000   76.75   67.76    2.09   65.67    0.00    0.00 -99.000 -99.000 -99.000   0.311   0.241   0.084   0.127   0.101   0.086   0.076   0.067   0.115   0.446   0.016   0.006
   17 071   140  16.00   9.00   0.00 -99.000   2.673   0.748   1.925   2.186   0.261   1.925   0.000   0.000   79.42   69.95    2.35   67.59    0.00    0.00 -99.000 -99.000 -99.000   0.348   0.275   0.095   0.149   0.120   0.102   0.090   0.080   0.136   0.531   0.026   0.006
   17 072   141  16.00  10.00  -1.00 -99.000   2.676   0.781   1.895   2.151   0.255   1.895   0.000   0.000   82.09   72.10    2.61   69.49    0.00    0.00 -99.000 -99.000 -99.000   0.331   0.268   0.093   0.148   0.119   0.101   0.089   0.079   0.136   0.530   0.026   0.006
   17 073   142  12.00  11.00  -1.00 -99.000   2.034   0.624   1.410   1.750   0.340   1.410   0.000   0.000   84.13   73.85    2.95   70.90    0.00    0.00 -99.000 -99.000 -99.000   0.237   0.199   0.069   0.111   0.089   0.076   0.067   0.060   0.103   0.399   0.034   0.007
   17 074   143   9.00  11.00   1.00 -99.000   1.553   0.504   1.050   1.360   0.356   1.005   0.000   0.000   85.68   75.21    3.30   71.90    0.00    0.00 -99.000 -99.000 -99.000   0.808   0.118   0.020   0.021   0.011   0.007   0.005   0.003   0.004   0.009   0.036   0.007
   17 075   144  16.00  15.00   0.00 -99.000   2.896   0.996   1.900   1.200   0.285   0.915   0.000   0.000   88.58   76.41    3.59   72.82    0.00    0.00 -99.000 -99.000 -99.000   0.719   0.117   0.020   0.021   0.011   0.007   0.005   0.003   0.004   0.009   0.029   0.008
   17 076   145  14.00  19.00   0.00 -99.000   2.675   0.996   1.679   1.713   0.831   0.882   0.000   0.000   91.25   78.12    4.42   73.70    0.00    0.00 -99.000 -99.000 -99.000   0.688   0.116   0.020   0.020   0.011   0.007   0.005   0.003   0.004   0.009   0.083   0.008
   17 077   146   4.00   8.00   6.00 -99.000   0.680   0.281   0.399   1.707   1.308   0.399   0.000   0.000   91.93   79.83    5.73   74.10    0.00    0.00 -99.000 -99.000 -99.000   0.322   0.046   0.008   0.008   0.004   0.003   0.002   0.001   0.002   0.003   0.131   0.009
   17 078   147   6.00  13.00   8.00 -99.000   1.132   0.484   0.647   0.685   0.038   0.647   0.000   0.000   93.06   80.51    5.76   74.75    0.00    0.00 -99.000 -99.000 -99.000   0.533   0.068   0.012   0.012   0.006   0.004   0.003   0.002   0.003   0.005   0.004   0.010
   17 079   148  10.00  13.00   6.00 -99.000   1.837   0.835   1.002   1.223   0.221   1.002   0.000   0.000   94.90   81.74    5.99   75.75    0.00    0.00 -99.000 -99.000 -99.000   0.816   0.110   0.019   0.020   0.010   0.006   0.004   0.003   0.004   0.008   0.022   0.011
   17 080   149   9.00  13.00   6.00 -99.000   1.639   0.805   0.835   1.257   0.423   0.835   0.000   0.000   96.54   82.99    6.41   76.58    0.00    0.00 -99.000 -99.000 -99.000   0.675   0.094   0.016   0.017   0.009   0.006   0.004   0.003   0.004   0.007   0.042   0.011
   17 081   150   4.00   7.00   4.00 -99.000   0.643   0.337   0.306   0.734   0.428   0.306   0.000   0.000   97.18   83.73    6.84   76.89    0.00    0.00 -99.000 -99.000 -99.000   0.249   0.034   0.006   0.006   0.003   0.002   0.001   0.001   0.001   0.003   0.043   0.012
   17 082   151  10.00  12.00   4.00 -99.000   1.745   0.937   0.808   0.868   0.060   0.808   0.000   0.000   98.93   84.59    6.90   77.70    0.00    0.00 -99.000 -99.000 -99.000   0.659   0.088   0.015   0.016   0.008   0.005   0.004   0.003   0.003   0.007   0.006   0.012
   17 083   152   5.00   9.00   3.00 -99.000   0.817   0.459   0.358   0.857   0.498   0.358   0.000   0.000   99.74   85.45    7.40   78.06    0.00    0.00 -99.000 -99.000 -99.000   0.288   0.041   0.007   0.008   0.004   0.002   0.002   0.001   0.002   0.003   0.050   0.013
   17 084   153  17.00  12.00   3.00 -99.000   2.908   1.674   1.234   1.097   0.184   0.914   0.000   0.000  102.65   86.55    7.58   78.97    0.00    0.00 -99.000 -99.000 -99.000   0.728   0.109   0.019   0.020   0.011   0.007   0.005   0.003   0.004   0.009   0.018   0.014
   17 085   154  17.00  11.00   0.00 -99.000   2.754   1.641   1.114   1.651   0.809   0.842   0.000   0.000  105.41   88.20    8.39   79.81    0.00    0.00 -99.000 -99.000 -99.000   0.657   0.108   0.019   0.020   0.011   0.007   0.005   0.003   0.004   0.009   0.081   0.014
   17 086   155  20.00  15.00   0.00 -99.000   3.447   2.094   1.354   1.599   0.838   0.761   0.000   0.000  108.85   89.80    9.23   80.57    0.00    0.00 -99.000 -99.000 -99.000   0.578   0.107   0.019   0.020   0.011   0.007   0.005   0.003   0.004   0.009   0.084   0.014
   17 087   156  19.00  18.00  -1.00 -99.000   3.381   2.115   1.267   2.405   1.717   0.688   0.000   0.000  112.23   92.20   10.94   81.26    0.00    0.00 -99.000 -99.000 -99.000   0.507   0.105   0.019   0.020   0.010   0.007   0.005   0.003   0.004   0.009   0.172   0.013
   17 088   157  17.00  18.00   5.00 -99.000   3.194   2.066   1.128   3.106   2.495   0.610   0.000   0.000  115.43   95.31   13.44   81.87    0.00    0.00 -99.000 -99.000 -99.000   0.433   0.102   0.018   0.019   0.010   0.006   0.005   0.003   0.004   0.009   0.250   0.013
   17 089   158  18.00  18.00   2.00 -99.000   3.269   2.190   1.079   2.523   1.980   0.543   0.000   0.000  118.70   97.83   15.42   82.41    0.00    0.00 -99.000 -99.000 -99.000   0.371   0.098   0.018   0.019   0.010   0.006   0.004   0.003   0.004   0.009   0.198   0.014
   17 090   159  19.00  23.00   4.00 -99.000   3.761   2.586   1.175   2.859   2.360   0.499   0.000   0.000  122.46  100.69   17.78   82.91    0.00    0.00 -99.000 -99.000 -99.000   0.331   0.094   0.017   0.019   0.010   0.006   0.004   0.003   0.004   0.009   0.236   0.016
   17 091   160  15.00  22.00   3.00 -99.000   2.892   2.051   0.841   4.136   3.673   0.463   0.000   0.000  125.35  104.83   21.45   83.38    0.00    0.00 -99.000 -99.000 -99.000   0.302   0.090   0.017   0.018   0.010   0.006   0.004   0.003   0.004   0.009   0.367   0.017
   17 092   161  15.00  19.00   6.00 -99.000   2.843   2.067   0.776   3.276   2.848   0.428   0.000   0.000  128.19  108.10   24.30   83.80    0.00    0.00 -99.000 -99.000 -99.000   0.275   0.084   0.016   0.018   0.010   0.006   0.004   0.003   0.004   0.009   0.285   0.019
   17 093   162  10.00  16.00   6.00 -99.000   1.811   1.345   0.466   2.285   1.819   0.466   0.000   0.000  130.00  110.39   26.12   84.27    0.00    0.00 -99.000 -99.000 -99.000   0.337   0.069   0.013   0.015   0.008   0.005   0.004   0.003   0.004   0.008   0.182   0.019
   17 094   163  11.00  13.00   2.00 -99.000   1.828   1.381   0.447   1.361   0.914   0.447   0.000   0.000  131.83  111.75   27.03   84.72    0.00    0.00 -99.000 -99.000 -99.000   0.346   0.054   0.010   0.012   0.007   0.004   0.003   0.002   0.003   0.006   0.091   0.020
   17 095   164  13.00  13.00   3.00 -99.000   2.180   1.663   0.517   1.273   0.756   0.517   0.000   0.000  134.01  113.02   27.79   85.23    0.00    0.00 -99.000 -99.000 -99.000   0.393   0.066   0.013   0.015   0.008   0.005   0.004   0.003   0.004   0.007   0.076   0.020
   17 096   165  10.00   8.00   1.00 -99.000   1.507   1.161   0.346   1.137   0.791   0.346   0.000   0.000  135.52  114.16   28.58   85.58    0.00    0.00 -99.000 -99.000 -99.000   0.257   0.047   0.009   0.010   0.006   0.004   0.003   0.002   0.003   0.005   0.079   0.020
   17 097   166  17.00  14.00   4.00 -99.000   2.918   2.261   0.658   0.804   0.283   0.522   0.000   0.000  138.44  114.96   28.86   86.10    0.00    0.00 -99.000 -99.000 -99.000   0.382   0.074   0.014   0.016   0.009   0.006   0.004   0.003   0.004   0.009   0.028   0.020
   17 098   167  19.00  17.00   4.00 -99.000   3.406   2.668   0.739   1.519   1.033   0.486   0.000   0.000  141.84  116.48   29.90   86.59    0.00    0.00 -99.000 -99.000 -99.000   0.347   0.073   0.014   0.016   0.009   0.006   0.004   0.003   0.004   0.009   0.103   0.020
   17 099   168  22.00  21.00   3.00 -99.000   4.130   3.273   0.857   2.115   1.663   0.452   0.000   0.000  145.97  118.60   31.56   87.04    0.00    0.00 -99.000 -99.000 -99.000   0.316   0.072   0.014   0.016   0.009   0.006   0.004   0.003   0.004   0.009   0.166   0.021
   17 100   169  20.00  23.00   5.00 -99.000   3.923   3.148   0.776   3.268   2.847   0.421   0.000   0.000  149.90  121.86   34.40   87.46    0.00    0.00 -99.000 -99.000 -99.000   0.287   0.070   0.013   0.016   0.009   0.006   0.004   0.003   0.004   0.009   0.285   0.020
   17 101   170  17.00  13.00   0.00 -99.000   2.734   2.223   0.512   3.315   2.924   0.391   0.000   0.000  152.63  125.18   37.33   87.85    0.00    0.00 -99.000 -99.000 -99.000   0.262   0.068   0.013   0.015   0.009   0.006   0.004   0.003   0.004   0.009   0.292   0.020
   17 102   171  18.00  18.00   0.00 -99.000   3.129   2.557   0.572   1.312   0.948   0.364   0.000   0.000  155.76  126.49   38.28   88.21    0.00    0.00 -99.000 -99.000 -99.000   0.238   0.065   0.012   0.015   0.008   0.005   0.004   0.003   0.004   0.009   0.095   0.021
   17 103   172  11.00  15.00   5.00 -99.000   1.920   1.581   0.339   2.189   1.850   0.339   0.000   0.000  157.68  128.68   40.13   88.55    0.00    0.00 -99.000 -99.000 -99.000   0.216   0.064   0.012   0.015   0.008   0.005   0.004   0.003   0.004   0.009   0.185   0.021
   17 104   173  11.00  13.00   4.00 -99.000   1.841   1.528   0.313   1.062   0.749   0.313   0.000   0.000  159.52  129.74   40.88   88.87    0.00    0.00 -99.000 -99.000 -99.000   0.194   0.062   0.011   0.014   0.008   0.005   0.004   0.003   0.004   0.008   0.075   0.020
   17 105   174  12.00  15.00   6.00 -99.000   2.111   1.763   0.348   0.867   0.566   0.301   0.000   0.000  161.63  130.61   41.44   89.17    0.00    0.00 -99.000 -99.000 -99.000   0.180   0.062   0.011   0.014   0.008   0.005   0.004   0.003   0.004   0.009   0.057   0.020
   17 106   175   9.00   9.00   4.00 -99.000   1.410   1.185   0.225   0.943   0.717   0.225   0.000   0.000  163.04  131.55   42.16   89.39    0.00    0.00 -99.000 -99.000 -99.000   0.143   0.042   0.008   0.010   0.006   0.004   0.003   0.002   0.003   0.006   0.072   0.020
   17 107   176   6.00   8.00   2.00 -99.000   0.903   0.761   0.142   0.342   0.200   0.142   0.000   0.000  163.94  131.89   42.36   89.53    0.00    0.00 -99.000 -99.000 -99.000   0.118   0.012   0.002   0.003   0.002   0.001   0.001   0.001   0.001   0.002   0.020   0.020
   17 108   177  10.00   6.00   0.00 -99.000   1.425   1.204   0.221   0.375   0.154   0.221   0.000   0.000  165.37  132.27   42.51   89.76    0.00    0.00 -99.000 -99.000 -99.000   0.052   0.020   0.007   0.013   0.012   0.010   0.009   0.009   0.018   0.070   0.015   0.025
   17 109   178  12.00   4.00   0.00 -99.000   1.127   0.954   0.173   0.327   0.154   0.173   0.000   0.000  166.50  132.60   42.67   89.93    0.00    0.00 -99.000 -99.000 -99.000   0.040   0.018   0.005   0.010   0.009   0.008   0.007   0.007   0.014   0.055   0.015   0.027
   17 110   179  16.00   6.00  -2.00 -99.000   2.225   1.884   0.341   0.428   0.088   0.341   0.000   0.000  168.72  133.03   42.76   90.27    0.00    0.00 -99.000 -99.000 -99.000   0.074   0.039   0.010   0.020   0.018   0.016   0.015   0.014   0.028   0.108   0.009   0.031
   17 111   180  20.00  11.00  -3.00 -99.000   3.006   2.550   0.457   0.709   0.252   0.457   0.000   0.000  171.73  133.73   43.01   90.73    0.00    0.00 -99.000 -99.000 -99.000   0.096   0.053   0.013   0.027   0.024   0.021   0.020   0.019   0.037   0.146   0.025   0.031
   17 112   181   8.00  11.00   2.00 -99.000   1.271   1.082   0.190   1.037   0.848   0.190   0.000   0.000  173.00  134.77   43.86   90.92    0.00    0.00 -99.000 -99.000 -99.000   0.042   0.023   0.005   0.011   0.010   0.009   0.008   0.008   0.015   0.059   0.085   0.031
   17 113   182  14.00   8.00  -2.00 -99.000   2.018   1.724   0.294   0.675   0.381   0.294   0.000   0.000  175.02  135.45   44.24   91.21    0.00    0.00 -99.000 -99.000 -99.000   0.064   0.037   0.008   0.017   0.015   0.013   0.012   0.012   0.023   0.092   0.038   0.031
   17 114   183  25.00  15.00  -3.00 -99.000   4.014   3.438   0.577   0.949   0.372   0.577   0.000   0.000  179.03  136.39   44.61   91.79    0.00    0.00 -99.000 -99.000 -99.000   0.121   0.076   0.016   0.033   0.029   0.026   0.024   0.024   0.046   0.181   0.037   0.031
   17 115   184   9.00  11.00   3.00 -99.000   1.444   1.242   0.202   1.897   1.694   0.202   0.000   0.000  180.47  138.29   46.30   91.99    0.00    0.00 -99.000 -99.000 -99.000   0.046   0.031   0.008   0.011   0.009   0.008   0.008   0.008   0.015   0.059   0.169   0.031
   17 116   185   6.00   4.00   1.00 -99.000   0.569   0.492   0.078   0.449   0.371   0.078   0.000   0.000  181.04  138.74   46.67   92.07    0.00    0.00 -99.000 -99.000 -99.000   0.019   0.013   0.004   0.004   0.003   0.003   0.003   0.003   0.005   0.021   0.037   0.034
   17 117   186   6.00   4.00   0.00 -99.000   0.562   0.486   0.076   0.122   0.045   0.076   0.000   0.000  181.61  138.86   46.72   92.14    0.00    0.00 -99.000 -99.000 -99.000   0.018   0.013   0.004   0.006   0.004   0.003   0.003   0.002   0.005   0.019   0.005   0.038
   17 118   187   7.00   5.00   0.00 -99.000   0.978   0.846   0.132   0.189   0.057   0.132   0.000   0.000  182.58  139.05   46.77   92.28    0.00    0.00 -99.000 -99.000 -99.000   0.029   0.022   0.007   0.012   0.008   0.005   0.004   0.004   0.008   0.032   0.006   0.039
   17 119   188  17.00  12.00   1.00 -99.000   2.715   2.352   0.364   0.456   0.092   0.364   0.000   0.000  185.30  139.51   46.87   92.64    0.00    0.00 -99.000 -99.000 -99.000   0.073   0.056   0.019   0.030   0.023   0.017   0.014   0.013   0.024   0.094   0.009   0.038
   17 120   189  26.00  14.00   1.00 -99.000   4.282   3.722   0.561   1.321   0.760   0.561   0.000   0.000  189.58  140.83   47.63   93.20    0.00    0.00 -99.000 -99.000 -99.000   0.106   0.082   0.028   0.045   0.035   0.029   0.025   0.022   0.039   0.150   0.076   0.038
   17 121   190  11.00  14.00   2.00 -99.000   1.828   1.596   0.233   1.567   1.333   0.233   0.000   0.000  191.41  142.39   48.96   93.43    0.00    0.00 -99.000 -99.000 -99.000   0.047   0.036   0.012   0.018   0.014   0.011   0.010   0.009   0.015   0.059   0.133   0.039
   17 122   191  15.00  14.00   4.00 -99.000   2.548   2.232   0.316   1.045   0.729   0.316   0.000   0.000  193.96  143.44   49.69   93.75    0.00    0.00 -99.000 -99.000 -99.000   0.063   0.048   0.016   0.025   0.019   0.016   0.014   0.012   0.021   0.082   0.073   0.039
   17 123   192  13.00  15.00   5.00 -99.000   2.261   1.990   0.272   1.050   0.779   0.272   0.000   0.000  196.22  144.49   50.47   94.02    0.00    0.00 -99.000 -99.000 -99.000   0.051   0.040   0.014   0.021   0.017   0.014   0.012   0.011   0.019   0.073   0.078   0.040
   17 124   193  14.00  14.00   4.00 -99.000   2.372   2.088   0.285   1.041   0.756   0.285   0.000   0.000  198.59  145.53   51.22   94.31    0.00    0.00 -99.000 -99.000 -99.000   0.052   0.041   0.014   0.022   0.018   0.015   0.013   0.012   0.020   0.078   0.076   0.040
   17 125   194  14.00  16.00   6.00 -99.000   2.494   2.194   0.300   0.995   0.695   0.300   0.000   0.000  201.08  146.53   51.92   94.61    0.00    0.00 -99.000 -99.000 -99.000   0.054   0.042   0.015   0.023   0.019   0.016   0.014   0.012   0.021   0.083   0.070   0.041
   17 126   195  23.00  20.00   5.00 -99.000   4.295   3.785   0.510   1.321   0.810   0.510   0.000   0.000  205.38  147.85   52.73   95.12    0.00    0.00 -99.000 -99.000 -99.000   0.091   0.072   0.025   0.040   0.032   0.027   0.024   0.021   0.037   0.142   0.081   0.041
   17 127   196   8.00  13.00   9.00 -99.000   1.403   1.239   0.164   2.027   1.863   0.164   0.000   0.000  206.78  149.87   54.59   95.28    0.00    0.00 -99.000 -99.000 -99.000   0.034   0.023   0.008   0.012   0.010   0.008   0.007   0.006   0.011   0.044   0.186   0.042
   17 128   197   6.00  11.00   6.00 -99.000   0.991   0.877   0.115   0.316   0.201   0.115   0.000   0.000  207.77  150.19   54.79   95.40    0.00    0.00 -99.000 -99.000 -99.000   0.026   0.017   0.006   0.008   0.007   0.006   0.005   0.004   0.007   0.029   0.020   0.043
   17 129   198  15.00  11.00   3.00 -99.000   2.400   2.124   0.276   0.435   0.159   0.276   0.000   0.000  210.17  150.62   54.95   95.67    0.00    0.00 -99.000 -99.000 -99.000   0.056   0.041   0.014   0.021   0.016   0.014   0.012   0.011   0.019   0.072   0.016   0.044
   17 130   199  28.00  16.00   0.00 -99.000   4.694   4.159   0.536   0.927   0.391   0.536   0.000   0.000  214.87  151.55   55.34   96.21    0.00    0.00 -99.000 -99.000 -99.000   0.102   0.077   0.027   0.041   0.033   0.028   0.024   0.022   0.037   0.145   0.039   0.044
   17 131   200  21.00  21.00   3.00 -99.000   3.897   3.479   0.419   1.673   1.255   0.419   0.000   0.000  218.76  153.22   56.60   96.63    0.00    0.00 -99.000 -99.000 -99.000   0.077   0.060   0.021   0.032   0.026   0.022   0.019   0.017   0.030   0.115   0.125   0.044
   17 132   201  20.00  21.00  11.00 -99.000   3.984   3.576   0.409   1.942   1.534   0.409   0.000   0.000  222.75  155.17   58.13   97.03    0.00    0.00 -99.000 -99.000 -99.000   0.074   0.058   0.020   0.032   0.025   0.022   0.019   0.017   0.029   0.114   0.153   0.045
   17 133   202  19.00  21.00   9.00 -99.000   3.716   3.350   0.367   1.328   0.961   0.367   0.000   0.000  226.47  156.50   59.09   97.40    0.00    0.00 -99.000 -99.000 -99.000   0.301   0.040   0.007   0.007   0.004   0.002   0.002   0.001   0.001   0.003   0.096   0.045
   17 134   203  17.00  20.00   9.00 -99.000   3.285   2.933   0.353   1.351   0.999   0.353   0.000   0.000  229.75  157.85   60.09   97.75    0.00    0.00 -99.000 -99.000 -99.000   0.070   0.054   0.019   0.027   0.021   0.018   0.015   0.014   0.024   0.092   0.100   0.045
   17 135   204  18.00  18.00   8.00 -99.000   3.364   2.984   0.381   1.172   0.791   0.381   0.000   0.000  233.11  159.02   60.88   98.14    0.00    0.00 -99.000 -99.000 -99.000   0.083   0.059   0.022   0.030   0.022   0.018   0.016   0.014   0.024   0.094   0.079   0.045
   17 136   205  24.00  21.00   6.00 -99.000   4.592   4.056   0.537   1.187   0.650   0.537   0.000   0.000  237.71  160.21   61.53   98.67    0.00    0.00 -99.000 -99.000 -99.000   0.106   0.079   0.028   0.042   0.033   0.027   0.024   0.021   0.036   0.140   0.065   0.046
   17 137   206  27.00  23.00   7.00 -99.000   5.350   4.721   0.630   1.839   1.209   0.630   0.000   0.000  243.06  162.04   62.74   99.30    0.00    0.00 -99.000 -99.000 -99.000   0.118   0.090   0.032   0.049   0.039   0.033   0.029   0.026   0.044   0.170   0.121   0.046
   17 138   207  23.00  27.00   8.00 -99.000   4.834   4.267   0.568   2.040   1.472   0.568   0.000   0.000  247.89  164.08   64.21   99.87    0.00    0.00 -99.000 -99.000 -99.000   0.103   0.080   0.028   0.044   0.035   0.030   0.026   0.023   0.040   0.157   0.147   0.046
   17 139   208  15.00  24.00   7.00 -99.000   3.009   2.656   0.354   2.090   1.736   0.354   0.000   0.000  250.90  166.17   65.95  100.22    0.00    0.00 -99.000 -99.000 -99.000   0.063   0.050   0.017   0.028   0.022   0.019   0.016   0.015   0.025   0.099   0.174   0.046
   17 140   209  23.00  17.00   4.00 -99.000   4.074   3.594   0.481   1.581   1.100   0.481   0.000   0.000  254.97  167.76   67.05  100.70    0.00    0.00 -99.000 -99.000 -99.000   0.394   0.052   0.009   0.009   0.005   0.003   0.002   0.001   0.002   0.004   0.110   0.047
   17 141   210  21.00  18.00   5.00 -99.000   3.818   3.324   0.494   1.265   0.771   0.494   0.000   0.000  258.79  169.02   67.82  101.20    0.00    0.00 -99.000 -99.000 -99.000   0.401   0.056   0.009   0.010   0.005   0.003   0.002   0.002   0.002   0.004   0.077   0.047
   17 142   211  23.00  22.00   7.00 -99.000   4.504   3.901   0.604   1.370   0.766   0.604   0.000   0.000  263.30  170.39   68.59  101.80    0.00    0.00 -99.000 -99.000 -99.000   0.486   0.070   0.012   0.012   0.006   0.004   0.003   0.002   0.003   0.005   0.077   0.047
   17 143   212  23.00  24.00   8.00 -99.000   4.665   4.023   0.643   1.804   1.161   0.643   0.000   0.000  267.96  172.19   69.75  102.45    0.00    0.00 -99.000 -99.000 -99.000   0.512   0.078   0.013   0.014   0.007   0.004   0.003   0.002   0.003   0.006   0.116   0.047
   17 144   213  18.00  17.00  10.00 -99.000   3.386   2.905   0.482   1.839   1.358   0.482   0.000   0.000  271.35  174.03   71.11  102.93    0.00    0.00 -99.000 -99.000 -99.000   0.378   0.062   0.011   0.011   0.006   0.004   0.002   0.002   0.002   0.005   0.136   0.047
   17 145   214  20.00  19.00   7.00 -99.000   3.764   3.213   0.551   0.978   0.427   0.551   0.000   0.000  275.11  175.01   71.53  103.48    0.00    0.00 -99.000 -99.000 -99.000   0.427   0.074   0.013   0.013   0.007   0.004   0.003   0.002   0.003   0.006   0.043   0.047
   17 146   215  29.00  22.00   5.00 -99.000   5.583   4.764   0.819   1.748   0.951   0.797   0.000   0.000  280.69  176.76   72.49  104.27    0.00    0.00 -99.000 -99.000 -99.000   0.609   0.111   0.019   0.020   0.010   0.006   0.004   0.003   0.004   0.009   0.095   0.047
   17 147   216  29.00  24.00   8.00 -99.000   5.880   5.035   0.846   2.865   2.132   0.732   0.000   0.000  286.57  179.62   74.62  105.01    0.00    0.00 -99.000 -99.000 -99.000   0.547   0.110   0.019   0.020   0.010   0.006   0.004   0.003   0.004   0.009   0.213   0.044
   17 148   217  29.00  27.00   9.00 -99.000   6.154   5.280   0.875   3.114   2.448   0.666   0.000   0.000  292.73  182.74   77.07  105.67    0.00    0.00 -99.000 -99.000 -99.000   0.484   0.107   0.019   0.019   0.010   0.006   0.004   0.003   0.004   0.009   0.245   0.043
   17 149   218  27.00  29.00  10.00 -99.000   5.914   5.082   0.833   3.674   3.067   0.607   0.000   0.000  298.64  186.41   80.13  106.28    0.00    0.00 -99.000 -99.000 -99.000   0.429   0.104   0.018   0.019   0.010   0.006   0.004   0.003   0.004   0.009   0.307   0.043
   17 150   219  25.00  28.00  16.00 -99.000   5.669   4.879   0.791   4.053   3.262   0.791   0.000   0.000  304.31  190.47   83.39  107.07    0.00    0.00 -99.000 -99.000 -99.000   0.625   0.097   0.017   0.018   0.010   0.006   0.004   0.003   0.004   0.008   0.326   0.043
   17 151   220  23.00  25.00  15.00 -99.000   5.017   4.280   0.738   2.850   2.112   0.738   0.000   0.000  309.33  193.31   85.51  107.81    0.00    0.00 -99.000 -99.000 -99.000   0.617   0.070   0.012   0.013   0.007   0.004   0.003   0.002   0.003   0.006   0.211   0.050
   17 152   221  23.00  25.00  13.00 -99.000   4.937   4.194   0.744   3.276   2.532   0.744   0.000   0.000  314.26  196.59   88.04  108.55    0.00    0.00 -99.000 -99.000 -99.000   0.614   0.075   0.013   0.014   0.008   0.005   0.003   0.002   0.003   0.007   0.253   0.050
   17 153   222  23.00  26.00  11.00 -99.000   4.917   4.161   0.757   4.548   3.792   0.757   0.000   0.000  319.18  201.14   91.83  109.31    0.00    0.00 -99.000 -99.000 -99.000   0.613   0.082   0.014   0.016   0.008   0.005   0.004   0.003   0.004   0.008   0.379   0.051
   17 154   223  25.00  27.00  12.00 -99.000   5.452   4.598   0.855   5.982   5.127   0.855   0.000   0.000  324.63  207.12   96.96  110.16    0.00    0.00 -99.000 -99.000 -99.000   0.709   0.084   0.015   0.016   0.009   0.005   0.004   0.003   0.004   0.008   0.513   0.051
   17 155   224  12.00  19.00  10.00 -99.000   2.329   1.957   0.372   5.980   5.608   0.372   0.000   0.000  326.96  213.10  102.57  110.54    0.00    0.00 -99.000 -99.000 -99.000   0.314   0.033   0.006   0.006   0.003   0.002   0.001   0.001   0.002   0.003   0.561   0.053
   17 156   225  14.00  21.00   9.00 -99.000   2.765   2.318   0.447   2.140   1.692   0.447   0.000   0.000  329.73  215.24  104.26  110.98    0.00    0.00 -99.000 -99.000 -99.000   0.379   0.039   0.007   0.007   0.004   0.003   0.002   0.001   0.002   0.004   0.169   0.053
   17 157   226   7.00  16.00   8.00 -99.000   1.280   1.071   0.209   2.813   2.603   0.209   0.000   0.000  331.01  218.05  106.86  111.19    0.00    0.00 -99.000 -99.000 -99.000   0.046   0.024   0.008   0.014   0.011   0.010   0.009   0.008   0.015   0.064   0.260   0.053
   17 158   227  21.00  15.00   5.00 -99.000   3.684   3.076   0.608   1.514   0.906   0.608   0.000   0.000  334.69  219.57  107.77  111.80    0.00    0.00 -99.000 -99.000 -99.000   0.134   0.076   0.021   0.038   0.032   0.028   0.026   0.023   0.043   0.185   0.091   0.052
   17 159   228  26.00  22.00   3.00 -99.000   4.944   4.124   0.821   2.784   1.963   0.821   0.000   0.000  339.64  222.35  109.73  112.62    0.00    0.00 -99.000 -99.000 -99.000   0.171   0.108   0.029   0.052   0.044   0.038   0.035   0.031   0.059   0.253   0.196   0.052
   17 160   229  21.00  24.00   7.00 -99.000   4.250   3.538   0.712   6.211   5.499   0.712   0.000   0.000  343.89  228.56  115.23  113.33    0.00    0.00 -99.000 -99.000 -99.000   0.160   0.098   0.024   0.043   0.036   0.032   0.029   0.026   0.050   0.214   0.550   0.052
   17 161   230  27.00  22.00  10.00 -99.000   5.474   4.547   0.928   5.929   5.001   0.928   0.000   0.000  349.36  234.49  120.23  114.26    0.00    0.00 -99.000 -99.000 -99.000   0.203   0.136   0.029   0.055   0.046   0.041   0.037   0.034   0.065   0.281   0.500   0.050
   17 162   231  29.00  26.00   8.00 -99.000   6.076   5.035   1.041   5.229   4.187   1.041   0.000   0.000  355.44  239.72  124.42  115.30    0.00    0.00 -99.000 -99.000 -99.000   0.214   0.155   0.032   0.062   0.052   0.046   0.042   0.038   0.074   0.326   0.419   0.047
   17 163   232  20.00  26.00  11.00 -99.000   4.295   3.550   0.745   7.614   6.869   0.745   0.000   0.000  359.73  247.33  131.29  116.05    0.00    0.00 -99.000 -99.000 -99.000   0.625   0.080   0.008   0.010   0.006   0.004   0.003   0.002   0.003   0.006   0.687   0.044
   17 164   233  29.00  24.00  11.00 -99.000   6.067   5.015   1.053   5.353   4.513   0.840   0.000   0.000  365.80  252.69  135.80  116.89    0.00    0.00 -99.000 -99.000 -99.000   0.686   0.101   0.010   0.013   0.007   0.005   0.003   0.002   0.004   0.008   0.451   0.040
   17 165   234  27.00  24.00  11.00 -99.000   5.648   4.644   1.004   5.762   5.043   0.719   0.000   0.000  371.45  258.45  140.84  117.61    0.00    0.00 -99.000 -99.000 -99.000   0.572   0.096   0.010   0.013   0.007   0.004   0.003   0.002   0.004   0.008   0.504   0.032
   17 166   235  27.00  28.00   9.00 -99.000   5.836   4.775   1.061   5.566   4.814   0.752   0.000   0.000  377.28  264.01  145.66  118.36    0.00    0.00 -99.000 -99.000 -99.000   0.611   0.091   0.010   0.012   0.007   0.004   0.003   0.002   0.004   0.008   0.481   0.025
   17 167   236  25.00  23.00  11.00 -99.000   5.175   4.213   0.962   7.953   7.154   0.798   0.000   0.000  382.46  271.97  152.81  119.16    0.00    0.00 -99.000 -99.000 -99.000   0.663   0.086   0.009   0.012   0.007   0.004   0.003   0.002   0.004   0.008   0.715   0.031
   17 168   237  23.00  20.00  10.00 -99.000   4.536   3.673   0.864   4.733   4.097   0.636   0.000   0.000  386.99  276.70  156.91  119.79    0.00    0.00 -99.000 -99.000 -99.000   0.509   0.080   0.009   0.011   0.006   0.004   0.003   0.002   0.003   0.008   0.410   0.020
   17 169   238  28.00  22.00   7.00 -99.000   5.522   4.447   1.075   3.446   2.894   0.552   0.000   0.000  392.51  280.15  159.80  120.35    0.00    0.00 -99.000 -99.000 -99.000   0.430   0.076   0.009   0.011   0.006   0.004   0.003   0.002   0.003   0.008   0.289   0.015
   17 170   239  30.00  28.00  10.00 -99.000   6.548   5.249   1.300   5.318   4.822   0.496   0.000   0.000  399.06  285.46  164.62  120.84    0.00    0.00 -99.000 -99.000 -99.000   0.377   0.073   0.009   0.011   0.006   0.004   0.003   0.002   0.003   0.008   0.482   0.014
   17 171   240  25.00  30.00  12.00 -99.000   5.677   4.529   1.148   7.645   7.200   0.446   0.000   0.000  404.74  293.11  171.82  121.29    0.00    0.00 -99.000 -99.000 -99.000   0.332   0.069   0.008   0.011   0.006   0.004   0.003   0.002   0.003   0.008   0.720   0.012
   17 172   241  22.00  30.00  14.00 -99.000   5.075   4.024   1.052   7.005   6.596   0.409   0.000   0.000  409.81  300.11  178.42  121.70    0.00    0.00 -99.000 -99.000 -99.000   0.302   0.063   0.008   0.010   0.005   0.003   0.002   0.002   0.003   0.008   0.660   0.009
   17 173   242  25.00  31.00  14.00 -99.000   5.836   4.594   1.243   6.050   5.496   0.554   0.000   0.000  415.65  306.16  183.91  122.25    0.00    0.00 -99.000 -99.000 -99.000   0.455   0.058   0.008   0.010   0.005   0.003   0.002   0.002   0.003   0.008   0.550   0.007
   17 174   243  23.00  29.00  15.00 -99.000   5.311   4.148   1.163   6.912   6.223   0.688   0.000   0.000  420.96  313.08  190.14  122.94    0.00    0.00 -99.000 -99.000 -99.000   0.593   0.055   0.008   0.009   0.005   0.003   0.002   0.002   0.003   0.008   0.622   0.014
   17 175   244  24.00  26.00  14.00 -99.000   5.304   4.110   1.194   4.906   4.417   0.490   0.000   0.000  426.26  317.98  194.55  123.43    0.00    0.00 -99.000 -99.000 -99.000   0.397   0.052   0.008   0.009   0.005   0.003   0.002   0.002   0.003   0.008   0.442   0.006
   17 176   245  15.00  22.00  12.00 -99.000   3.101   2.402   0.699   4.234   3.771   0.463   0.000   0.000  429.37  322.22  198.33  123.89    0.00    0.00 -99.000 -99.000 -99.000   0.373   0.051   0.008   0.009   0.005   0.003   0.002   0.002   0.003   0.008   0.377   0.005
   17 177   246  28.00  29.00  13.00 -99.000   6.360   4.921   1.440   2.722   2.071   0.652   0.000   0.000  435.73  324.94  200.40  124.54    0.00    0.00 -99.000 -99.000 -99.000   0.564   0.049   0.008   0.009   0.005   0.003   0.002   0.002   0.002   0.008   0.207   0.006
   17 178   247  20.00  26.00  16.00 -99.000   4.505   3.481   1.024   6.611   5.586   1.024   0.000   0.000  440.23  331.55  205.98  125.57    0.00    0.00 -99.000 -99.000 -99.000   0.272   0.097   0.029   0.050   0.041   0.035   0.032   0.029   0.059   0.382   0.559   0.014
   17 179   248  20.00  25.00  15.00 -99.000   4.430   3.415   1.015   3.988   2.972   1.015   0.000   0.000  444.66  335.54  208.96  126.58    0.00    0.00 -99.000 -99.000 -99.000   0.296   0.133   0.026   0.045   0.037   0.032   0.029   0.025   0.051   0.342   0.297   0.014
   17 180   249  17.00  22.00  13.00 -99.000   3.579   2.750   0.829   3.796   2.967   0.829   0.000   0.000  448.24  339.33  211.92  127.41    0.00    0.00 -99.000 -99.000 -99.000   0.236   0.136   0.020   0.035   0.029   0.025   0.022   0.020   0.040   0.267   0.297   0.021
   17 181   250  25.00  22.00  13.00 -99.000   5.258   4.027   1.232   3.468   2.236   1.232   0.000   0.000  453.50  342.80  214.16  128.64    0.00    0.00 -99.000 -99.000 -99.000   0.311   0.214   0.031   0.054   0.044   0.038   0.035   0.031   0.061   0.413   0.224   0.020
   17 182   251  19.00  21.00  12.00 -99.000   3.908   2.981   0.927   3.758   2.832   0.927   0.000   0.000  457.41  346.56  216.99  129.57    0.00    0.00 -99.000 -99.000 -99.000   0.793   0.099   0.007   0.008   0.004   0.003   0.002   0.001   0.002   0.007   0.283   0.020
   17 183   252  12.00  19.00  13.00 -99.000   2.422   1.840   0.582   2.820   2.238   0.582   0.000   0.000  459.83  349.38  219.23  130.15    0.00    0.00 -99.000 -99.000 -99.000   0.485   0.071   0.006   0.006   0.003   0.002   0.001   0.001   0.002   0.005   0.224   0.020
   17 184   253  20.00  22.00  12.00 -99.000   4.158   3.144   1.014   1.764   1.067   0.697   0.000   0.000  463.99  351.14  220.29  130.85    0.00    0.00 -99.000 -99.000 -99.000   0.566   0.094   0.008   0.009   0.005   0.003   0.002   0.001   0.002   0.007   0.107   0.015
   17 185   254  23.00  25.00  11.00 -99.000   4.923   3.704   1.219   3.178   2.561   0.617   0.000   0.000  468.91  354.32  222.86  131.47    0.00    0.00 -99.000 -99.000 -99.000   0.489   0.091   0.008   0.009   0.005   0.003   0.002   0.001   0.002   0.007   0.256   0.011
   17 186   255  28.00  29.00  10.00 -99.000   6.238   4.666   1.573   4.526   4.009   0.517   0.000   0.000  475.15  358.85  226.86  131.98    0.00    0.00 -99.000 -99.000 -99.000   0.397   0.083   0.008   0.009   0.005   0.003   0.002   0.001   0.002   0.007   0.401   0.010
   17 187   256  27.00  31.00  12.00 -99.000   6.254   4.645   1.610   4.675   4.243   0.432   0.000   0.000  481.40  363.52  231.11  132.42    0.00    0.00 -99.000 -99.000 -99.000   0.324   0.071   0.008   0.009   0.005   0.003   0.002   0.001   0.002   0.007   0.424   0.004
   17 188   257  19.00  29.00  15.00 -99.000   4.403   3.243   1.161   0.401   0.022   0.379   0.000   0.000  485.80  363.92  231.13  132.79    0.00    0.00 -99.000 -99.000 -99.000   0.295   0.047   0.008   0.009   0.005   0.003   0.002   0.001   0.002   0.007   0.002   0.002
   17 189   258  21.00  30.00  16.00 -99.000   4.966   3.607   1.359   0.374   0.022   0.352   0.000   0.000  490.77  364.30  231.15  133.15    0.00    0.00 -99.000 -99.000 -99.000   0.268   0.046   0.008   0.009   0.005   0.003   0.002   0.001   0.002   0.007   0.002   0.002
   17 190   259  17.00  27.00  16.00 -99.000   3.888   2.790   1.099   0.909   0.022   0.888   0.000   0.000  494.66  365.21  231.17  134.03    0.00    0.00 -99.000 -99.000 -99.000   0.770   0.081   0.008   0.009   0.005   0.003   0.002   0.001   0.002   0.007   0.002   0.002
   17 191   260  17.00  26.00  15.00 -99.000   3.871   2.737   1.134   3.711   2.577   1.134   0.000   0.000  498.53  368.92  233.75  135.17    0.00    0.00 -99.000 -99.000 -99.000   0.343   0.201   0.033   0.045   0.037   0.032   0.029   0.026   0.049   0.341   0.258   0.018
   17 192   261  19.00  23.00  14.00 -99.000   4.142   2.884   1.258   3.708   2.450   1.258   0.000   0.000  502.67  372.63  236.20  136.42    0.00    0.00 -99.000 -99.000 -99.000   0.354   0.231   0.050   0.050   0.041   0.036   0.032   0.029   0.054   0.381   0.245   0.018
   17 193   262  16.00  25.00  13.00 -99.000   3.549   2.431   1.119   3.086   1.967   1.119   0.000   0.000  506.22  375.71  238.17  137.54    0.00    0.00 -99.000 -99.000 -99.000   0.302   0.205   0.051   0.045   0.037   0.032   0.029   0.026   0.049   0.344   0.197   0.020
   17 194   263  28.00  21.00   9.00 -99.000   5.716   3.850   1.867   4.181   2.314   1.867   0.000   0.000  511.94  379.89  240.48  139.41    0.00    0.00 -99.000 -99.000 -99.000   0.462   0.344   0.095   0.077   0.064   0.055   0.050   0.044   0.084   0.592   0.231   0.020
   17 195   264  17.00  20.00   9.00 -99.000   3.422   2.262   1.161   3.832   2.671   1.161   0.000   0.000  515.36  383.72  243.15  140.57    0.00    0.00 -99.000 -99.000 -99.000   0.307   0.208   0.061   0.046   0.038   0.033   0.030   0.027   0.051   0.358   0.267   0.020
   17 196   265  18.00  19.00  11.00 -99.000   3.667   2.384   1.283   2.970   1.686   1.283   0.000   0.000  519.03  386.69  244.84  141.85    0.00    0.00 -99.000 -99.000 -99.000   0.332   0.231   0.074   0.051   0.042   0.037   0.033   0.030   0.056   0.397   0.169   0.020
   17 197   266  25.00  23.00   8.00 -99.000   5.220   3.336   1.885   3.148   1.263   1.885   0.000   0.000  524.25  389.84  246.10  143.74    0.00    0.00 -99.000 -99.000 -99.000   0.450   0.338   0.116   0.078   0.064   0.056   0.050   0.045   0.086   0.602   0.126   0.019
   17 198   267  22.00  26.00  10.00 -99.000   4.856   3.043   1.814   3.953   2.954   0.999   0.000   0.000  529.10  393.79  249.06  144.74    0.00    0.00 -99.000 -99.000 -99.000   0.839   0.113   0.019   0.008   0.004   0.003   0.002   0.001   0.002   0.007   0.295   0.019
   17 199   268  26.00  29.00  11.00 -99.000   5.993   3.673   2.320   3.920   3.117   0.803   0.000   0.000  535.09  397.72  252.17  145.54    0.00    0.00 -99.000 -99.000 -99.000   0.651   0.105   0.018   0.008   0.004   0.003   0.002   0.001   0.002   0.007   0.312   0.019
   17 200   269  26.00  32.00  15.00 -99.000   6.394   3.809   2.586   4.542   3.903   0.639   0.000   0.000  541.49  402.26  256.08  146.18    0.00    0.00 -99.000 -99.000 -99.000   0.497   0.097   0.017   0.008   0.004   0.003   0.002   0.001   0.002   0.007   0.390   0.012
   17 201   270  14.00  27.00  14.00 -99.000   3.230   1.857   1.373   4.083   3.579   0.504   0.000   0.000  544.72  406.34  259.66  146.68    0.00    0.00 -99.000 -99.000 -99.000   0.377   0.084   0.015   0.008   0.004   0.003   0.002   0.001   0.002   0.007   0.358   0.011
   17 202   271  25.00  28.00  13.00 -99.000   5.808   3.188   2.620   2.200   1.768   0.432   0.000   0.000  550.53  408.54  261.42  147.12    0.00    0.00 -99.000 -99.000 -99.000   0.319   0.072   0.012   0.008   0.004   0.003   0.002   0.001   0.002   0.007   0.177   0.004
   17 203   272  20.00  28.00  15.00 -99.000   4.735   2.476   2.260   3.258   2.728   0.530   0.000   0.000  555.26  411.80  264.15  147.65    0.00    0.00 -99.000 -99.000 -99.000   0.425   0.066   0.011   0.008   0.004   0.003   0.002   0.001   0.002   0.007   0.273   0.003
   17 204   273  14.00  23.00  15.00 -99.000   3.154   1.559   1.595   2.583   1.968   0.616   0.000   0.000  558.42  414.38  266.12  148.26    0.00    0.00 -99.000 -99.000 -99.000   0.521   0.058   0.008   0.008   0.004   0.003   0.002   0.001   0.002   0.007   0.197   0.003
   17 205   274   8.00  18.00  11.00 -99.000   1.635   0.754   0.881   1.476   0.848   0.628   0.000   0.000  560.05  415.86  266.97  148.89    0.00    0.00 -99.000 -99.000 -99.000   0.538   0.054   0.008   0.008   0.004   0.003   0.002   0.001   0.002   0.007   0.085   0.002
   17 206   275  12.00  17.00  11.00 -99.000   2.451   1.051   1.400   1.778   0.378   1.400   0.000   0.000  562.50  417.64  267.35  150.29    0.00    0.00 -99.000 -99.000 -99.000   0.376   0.204   0.043   0.061   0.050   0.044   0.040   0.036   0.068   0.478   0.038   0.009
   17 207   276   6.00  13.00  12.00 -99.000   1.194   0.480   0.714   1.088   0.374   0.714   0.000   0.000  563.70  418.72  267.72  151.00    0.00    0.00 -99.000 -99.000 -99.000   0.204   0.138   0.037   0.037   0.021   0.018   0.017   0.015   0.028   0.199   0.037   0.015
   17 208   277  10.00  19.00  11.00 -99.000   2.158   0.803   1.355   1.387   0.032   1.355   0.000   0.000  565.85  420.11  267.75  152.36    0.00    0.00 -99.000 -99.000 -99.000   0.365   0.266   0.094   0.102   0.038   0.032   0.029   0.026   0.050   0.352   0.003   0.022
   17 209   278  18.00  21.00  14.00 -99.000   4.117   1.409   2.708   3.105   0.398   2.708   0.000   0.000  569.97  423.22  268.15  155.07    0.00    0.00 -99.000 -99.000 -99.000   0.655   0.494   0.173   0.242   0.112   0.068   0.062   0.055   0.105   0.742   0.040   0.022
   17 210   279  24.00  27.00  12.00 -99.000   5.816   1.754   4.062   4.563   0.501   4.062   0.000   0.000  575.79  427.78  268.65  159.13    0.00    0.00 -99.000 -99.000 -99.000   0.903   0.709   0.248   0.371   0.235   0.105   0.095   0.085   0.162   1.149   0.050   0.025
   17 211   280  22.00  32.00  14.00 -99.000   5.762   1.446   4.316   5.435   1.119   4.316   0.000   0.000  581.55  433.21  269.77  163.45    0.00    0.00 -99.000 -99.000 -99.000   0.940   0.739   0.261   0.398   0.267   0.112   0.102   0.091   0.174   1.234   0.112   0.025
   17 212   281  21.00  30.00  15.00 -99.000   5.477   1.058   4.420   5.390   0.970   4.420   0.000   0.000  587.02  438.60  270.74  167.86    0.00    0.00 -99.000 -99.000 -99.000   0.934   0.744   0.265   0.412   0.274   0.116   0.106   0.095   0.181   1.290   0.097   0.025
   17 213   282  23.00  33.00  15.00 -99.000   6.256   0.762   5.493   5.996   0.502   5.493   0.000   0.000  593.28  444.60  271.24  173.36    0.00    0.00 -99.000 -99.000 -99.000   1.293   0.909   0.319   0.490   0.326   0.140   0.127   0.114   0.218   1.558   0.050   0.025
   17 214   283  22.00  30.00  17.00 -99.000   6.048   0.238   5.810   6.003   0.192   5.810   0.000   0.000  599.33  450.60  271.43  179.17    0.00    0.00 -99.000 -99.000 -99.000   1.379   0.973   0.336   0.517   0.338   0.146   0.133   0.120   0.229   1.640   0.019   0.024
   17 215   284  14.00  30.00  16.00 -99.000   3.810   0.000   3.810   3.822   0.012   3.810   0.000   0.000  603.14  454.42  271.45  182.98    0.00    0.00 -99.000 -99.000 -99.000   0.943   0.636   0.219   0.335   0.215   0.093   0.085   0.077   0.147   1.059   0.001   0.000
[...]
   17 148   217  29.00  27.00   9.00 -99.000   6.346   4.149   2.199   1.565   1.016   0.549   0.000   0.000  305.20  167.95   23.50  144.46    0.00    0.00 -99.000 -99.000 -99.000   0.363   0.109   0.019   0.020   0.011   0.007   0.004   0.003   0.004   0.009   0.102   0.017
   17 149   218  27.00  29.00  10.00 -99.000   6.100   3.981   2.119   1.777   1.265   0.512   0.000   0.000  311.30  169.73   24.76  144.97    0.00    0.00 -99.000 -99.000 -99.000   0.329   0.107   0.019   0.020   0.010   0.006   0.004   0.003   0.004   0.009   0.126   0.017
   17 150   219  25.00  28.00  16.00 -99.000   5.848   3.813   2.035   2.150   1.401   0.749   0.000   0.000  317.15  171.88   26.16  145.72    0.00    0.00 -99.000 -99.000 -99.000   0.568   0.105   0.019   0.020   0.010   0.006   0.004   0.003   0.004   0.009   0.140   0.017
   17 151   220  23.00  25.00  15.00 -99.000   5.204   3.338   1.867   1.937   0.972   0.964   0.000   0.000  322.36  173.82   27.13  146.68    0.00    0.00 -99.000 -99.000 -99.000   0.786   0.103   0.019   0.019   0.010   0.006   0.004   0.003   0.004   0.009   0.097   0.020
   17 152   221  23.00  25.00  13.00 -99.000   5.119   3.256   1.864   1.841   0.959   0.881   0.000   0.000  327.48  175.66   28.09  147.56    0.00    0.00 -99.000 -99.000 -99.000   0.705   0.102   0.018   0.019   0.010   0.006   0.004   0.003   0.004   0.009   0.096   0.020
   17 153   222  23.00  26.00  11.00 -99.000   5.096   3.215   1.881   2.068   1.262   0.806   0.000   0.000  332.57  177.72   29.36  148.37    0.00    0.00 -99.000 -99.000 -99.000   0.631   0.100   0.018   0.019   0.010   0.006   0.004   0.003   0.004   0.009   0.126   0.020
   17 154   223  25.00  27.00  12.00 -99.000   5.650   3.537   2.113   2.616   1.704   0.913   0.000   0.000  338.22  180.34   31.06  149.28    0.00    0.00 -99.000 -99.000 -99.000   0.740   0.099   0.018   0.019   0.010   0.006   0.004   0.003   0.004   0.009   0.170   0.019
   17 155   224  12.00  19.00  10.00 -99.000   2.422   1.504   0.918   2.896   1.978   0.918   0.000   0.000  340.64  183.24   33.04  150.20    0.00    0.00 -99.000 -99.000 -99.000   0.763   0.088   0.016   0.017   0.009   0.006   0.004   0.003   0.004   0.008   0.198   0.021
   17 156   225  14.00  21.00   9.00 -99.000   2.874   1.773   1.101   1.595   0.593   1.002   0.000   0.000  343.52  184.83   33.63  151.20    0.00    0.00 -99.000 -99.000 -99.000   0.835   0.095   0.017   0.019   0.010   0.006   0.004   0.003   0.004   0.009   0.059   0.022
   17 157   226   7.00  16.00   8.00 -99.000   1.332   0.817   0.516   1.517   1.001   0.516   0.000   0.000  344.85  186.35   34.63  151.72    0.00    0.00 -99.000 -99.000 -99.000   0.106   0.063   0.022   0.037   0.031   0.026   0.023   0.021   0.037   0.149   0.100   0.022
   17 158   227  21.00  15.00   5.00 -99.000   3.849   2.347   1.502   1.860   0.358   1.502   0.000   0.000  348.70  188.21   34.99  153.22    0.00    0.00 -99.000 -99.000 -99.000   0.313   0.198   0.064   0.106   0.087   0.075   0.067   0.059   0.105   0.429   0.036   0.022
   17 159   228  26.00  22.00   3.00 -99.000   5.158   3.132   2.027   2.862   0.834   2.027   0.000   0.000  353.86  191.07   35.82  155.25    0.00    0.00 -99.000 -99.000 -99.000   0.396   0.280   0.086   0.145   0.119   0.102   0.091   0.081   0.143   0.585   0.083   0.022
   17 160   229  21.00  24.00   7.00 -99.000   4.431   2.675   1.756   4.084   2.328   1.756   0.000   0.000  358.29  195.16   38.15  157.00    0.00    0.00 -99.000 -99.000 -99.000   0.372   0.247   0.074   0.121   0.099   0.086   0.076   0.068   0.120   0.494   0.233   0.022
   17 161   230  27.00  22.00  10.00 -99.000   5.727   3.433   2.294   4.401   2.107   2.294   0.000   0.000  364.01  199.56   40.26  159.30    0.00    0.00 -99.000 -99.000 -99.000   0.474   0.331   0.106   0.155   0.128   0.111   0.099   0.088   0.156   0.646   0.211   0.023
   17 162   231  29.00  26.00   8.00 -99.000   6.347   3.778   2.569   4.428   1.859   2.569   0.000   0.000  370.36  203.98   42.12  161.87    0.00    0.00 -99.000 -99.000 -99.000   0.497   0.372   0.127   0.175   0.145   0.125   0.112   0.100   0.178   0.740   0.186   0.023
   17 163   232  20.00  26.00  11.00 -99.000   4.483   2.648   1.836   4.183   3.123   1.060   0.000   0.000  374.84  208.17   45.24  162.93    0.00    0.00 -99.000 -99.000 -99.000   0.874   0.115   0.019   0.017   0.009   0.006   0.004   0.003   0.004   0.008   0.312   0.024
   17 164   233  29.00  24.00  11.00 -99.000   6.328   3.737   2.591   3.096   2.151   0.945   0.000   0.000  381.17  211.26   47.39  163.87    0.00    0.00 -99.000 -99.000 -99.000   0.764   0.112   0.019   0.017   0.009   0.006   0.004   0.003   0.004   0.008   0.215   0.024
   17 165   234  27.00  24.00  11.00 -99.000   5.890   3.427   2.464   3.563   2.712   0.852   0.000   0.000  387.06  214.83   50.10  164.72    0.00    0.00 -99.000 -99.000 -99.000   0.674   0.110   0.018   0.016   0.009   0.006   0.004   0.003   0.004   0.008   0.271   0.024
   17 166   235  27.00  28.00   9.00 -99.000   6.085   3.492   2.594   3.745   2.849   0.896   0.000   0.000  393.15  218.57   52.95  165.62    0.00    0.00 -99.000 -99.000 -99.000   0.721   0.107   0.018   0.016   0.009   0.006   0.004   0.003   0.004   0.008   0.285   0.024
   17 167   236  25.00  23.00  11.00 -99.000   5.410   3.063   2.348   5.583   4.648   0.935   0.000   0.000  398.56  224.15   57.60  166.55    0.00    0.00 -99.000 -99.000 -99.000   0.764   0.104   0.018   0.016   0.009   0.006   0.004   0.003   0.004   0.008   0.465   0.025
   17 168   237  23.00  20.00  10.00 -99.000   4.740   2.648   2.093   3.480   2.666   0.815   0.000   0.000  403.30  227.63   60.27  167.37    0.00    0.00 -99.000 -99.000 -99.000   0.650   0.100   0.017   0.015   0.008   0.005   0.004   0.003   0.004   0.008   0.267   0.026
   17 169   238  28.00  22.00   7.00 -99.000   5.767   3.185   2.582   2.619   1.892   0.727   0.000   0.000  409.06  230.25   62.16  168.10    0.00    0.00 -99.000 -99.000 -99.000   0.567   0.097   0.017   0.015   0.008   0.005   0.004   0.003   0.004   0.008   0.189   0.024
   17 170   239  30.00  28.00  10.00 -99.000   6.833   3.741   3.093   3.828   3.172   0.656   0.000   0.000  415.90  234.08   65.33  168.75    0.00    0.00 -99.000 -99.000 -99.000   0.498   0.095   0.016   0.015   0.008   0.005   0.004   0.003   0.004   0.008   0.317   0.024
   17 171   240  25.00  30.00  12.00 -99.000   5.918   3.214   2.704   5.365   4.786   0.579   0.000   0.000  421.82  239.45   70.11  169.33    0.00    0.00 -99.000 -99.000 -99.000   0.425   0.092   0.016   0.015   0.008   0.005   0.004   0.003   0.004   0.008   0.479   0.023
   17 172   241  22.00  30.00  14.00 -99.000   5.286   2.841   2.445   4.889   4.380   0.510   0.000   0.000  427.10  244.33   74.49  169.84    0.00    0.00 -99.000 -99.000 -99.000   0.362   0.087   0.015   0.014   0.008   0.005   0.004   0.003   0.004   0.008   0.438   0.022
   17 173   242  25.00  31.00  14.00 -99.000   6.076   3.227   2.849   4.277   3.633   0.644   0.000   0.000  433.18  248.61   78.13  170.48    0.00    0.00 -99.000 -99.000 -99.000   0.503   0.083   0.015   0.014   0.008   0.005   0.004   0.003   0.004   0.008   0.363   0.021
   17 174   243  23.00  29.00  15.00 -99.000   5.551   2.912   2.639   4.867   4.094   0.773   0.000   0.000  438.73  253.48   82.22  171.26    0.00    0.00 -99.000 -99.000 -99.000   0.637   0.079   0.014   0.013   0.007   0.005   0.003   0.003   0.004   0.008   0.409   0.021
   17 175   244  24.00  26.00  14.00 -99.000   5.543   2.870   2.674   3.535   2.862   0.674   0.000   0.000  444.27  257.01   85.08  171.93    0.00    0.00 -99.000 -99.000 -99.000   0.542   0.076   0.014   0.013   0.007   0.005   0.003   0.002   0.003   0.008   0.286   0.017
   17 176   245  15.00  22.00  12.00 -99.000   3.238   1.675   1.563   2.958   2.318   0.640   0.000   0.000  447.51  259.97   87.40  172.57    0.00    0.00 -99.000 -99.000 -99.000   0.513   0.073   0.013   0.012   0.007   0.005   0.003   0.002   0.003   0.008   0.232   0.015
   17 177   246  28.00  29.00  13.00 -99.000   6.642   3.430   3.212   2.091   1.293   0.798   0.000   0.000  454.15  262.06   88.69  173.37    0.00    0.00 -99.000 -99.000 -99.000   0.673   0.071   0.013   0.012   0.007   0.005   0.003   0.002   0.003   0.008   0.129   0.014
   17 178   247  20.00  26.00  16.00 -99.000   4.721   2.433   2.288   5.685   3.397   2.288   0.000   0.000  458.87  267.75   92.09  175.66    0.00    0.00 -99.000 -99.000 -99.000   0.548   0.252   0.085   0.124   0.109   0.100   0.092   0.084   0.156   0.737   0.340   0.015
   17 179   248  20.00  25.00  15.00 -99.000   4.669   2.398   2.272   3.990   1.718   2.272   0.000   0.000  463.54  271.74   93.81  177.93    0.00    0.00 -99.000 -99.000 -99.000   0.608   0.316   0.085   0.109   0.097   0.089   0.082   0.075   0.141   0.670   0.172   0.017
   17 180   249  17.00  22.00  13.00 -99.000   3.771   1.923   1.849   3.145   1.296   1.849   0.000   0.000  467.31  274.88   95.11  179.78    0.00    0.00 -99.000 -99.000 -99.000   0.467   0.305   0.083   0.085   0.075   0.069   0.065   0.059   0.111   0.530   0.130   0.018
   17 181   250  25.00  22.00  13.00 -99.000   5.539   2.798   2.742   3.608   0.867   2.742   0.000   0.000  472.85  278.49   95.97  182.52    0.00    0.00 -99.000 -99.000 -99.000   0.620   0.450   0.145   0.135   0.115   0.106   0.099   0.090   0.169   0.815   0.087   0.017
   17 182   251  19.00  21.00  12.00 -99.000   4.108   2.054   2.054   3.229   1.175   2.054   0.000   0.000  476.96  281.72   97.15  184.57    0.00    0.00 -99.000 -99.000 -99.000   0.436   0.336   0.114   0.107   0.087   0.080   0.075   0.068   0.129   0.623   0.118   0.017
   17 183   252  12.00  19.00  13.00 -99.000   2.548   1.260   1.289   1.901   0.841   1.060   0.000   0.000  479.51  283.62   97.99  185.63    0.00    0.00 -99.000 -99.000 -99.000   0.883   0.118   0.020   0.012   0.006   0.004   0.003   0.002   0.003   0.008   0.084   0.017
   17 184   253  20.00  22.00  12.00 -99.000   4.373   2.136   2.238   1.422   0.451   0.971   0.000   0.000  483.88  285.04   98.44  186.61    0.00    0.00 -99.000 -99.000 -99.000   0.796   0.117   0.020   0.012   0.006   0.004   0.003   0.002   0.003   0.008   0.045   0.017
   17 185   254  23.00  25.00  11.00 -99.000   5.175   2.495   2.680   2.117   1.223   0.894   0.000   0.000  489.06  287.16   99.66  187.50    0.00    0.00 -99.000 -99.000 -99.000   0.720   0.116   0.020   0.012   0.006   0.004   0.003   0.002   0.003   0.008   0.122   0.017
   17 186   255  28.00  29.00  10.00 -99.000   6.555   3.120   3.435   2.682   1.866   0.816   0.000   0.000  495.61  289.84  101.53  188.32    0.00    0.00 -99.000 -99.000 -99.000   0.644   0.114   0.019   0.012   0.006   0.004   0.003   0.002   0.003   0.008   0.187   0.017
   17 187   256  27.00  31.00  12.00 -99.000   6.567   3.085   3.482   3.548   2.810   0.738   0.000   0.000  502.18  293.39  104.34  189.05    0.00    0.00 -99.000 -99.000 -99.000   0.569   0.112   0.019   0.011   0.006   0.004   0.003   0.002   0.003   0.008   0.281   0.015
   17 188   257  19.00  29.00  15.00 -99.000   4.617   2.140   2.477   3.338   2.680   0.658   0.000   0.000  506.80  296.73  107.02  189.71    0.00    0.00 -99.000 -99.000 -99.000   0.493   0.109   0.019   0.011   0.006   0.004   0.003   0.002   0.003   0.008   0.268   0.014
   17 189   258  21.00  30.00  16.00 -99.000   5.197   2.370   2.827   2.163   1.577   0.586   0.000   0.000  511.99  298.89  108.59  190.30    0.00    0.00 -99.000 -99.000 -99.000   0.425   0.106   0.018   0.011   0.006   0.004   0.003   0.002   0.003   0.008   0.158   0.013
   17 190   259  17.00  27.00  16.00 -99.000   4.066   1.820   2.247   3.855   1.608   2.247   0.000   0.000  516.06  302.75  110.20  192.54    0.00    0.00 -99.000 -99.000 -99.000   0.441   0.398   0.135   0.118   0.089   0.083   0.078   0.072   0.138   0.694   0.161   0.013
   17 191   260  17.00  26.00  15.00 -99.000   4.088   1.790   2.298   3.364   1.066   2.298   0.000   0.000  520.15  306.11  111.27  194.84    0.00    0.00 -99.000 -99.000 -99.000   0.597   0.412   0.144   0.126   0.078   0.072   0.069   0.063   0.122   0.616   0.107   0.015
   17 192   261  19.00  23.00  14.00 -99.000   4.376   1.872   2.505   3.503   0.999   2.505   0.000   0.000  524.52  309.61  112.27  197.35    0.00    0.00 -99.000 -99.000 -99.000   0.632   0.432   0.166   0.167   0.084   0.078   0.074   0.068   0.132   0.671   0.100   0.017
   17 193   262  16.00  25.00  13.00 -99.000   3.748   1.564   2.184   2.978   0.794   2.184   0.000   0.000  528.27  312.59  113.06  199.53    0.00    0.00 -99.000 -99.000 -99.000   0.535   0.367   0.143   0.170   0.074   0.068   0.065   0.059   0.115   0.588   0.079   0.017
   17 194   263  28.00  21.00   9.00 -99.000   6.033   2.456   3.577   4.503   0.926   3.577   0.000   0.000  534.30  317.09  113.99  203.11    0.00    0.00 -99.000 -99.000 -99.000   0.795   0.584   0.216   0.307   0.148   0.115   0.110   0.101   0.196   1.004   0.093   0.017
   17 195   264  17.00  20.00   9.00 -99.000   3.602   1.426   2.176   3.243   1.067   2.176   0.000   0.000  537.91  320.34  115.05  205.28    0.00    0.00 -99.000 -99.000 -99.000   0.513   0.353   0.129   0.183   0.101   0.067   0.064   0.059   0.115   0.591   0.107   0.018
   17 196   265  18.00  19.00  11.00 -99.000   3.870   1.496   2.374   3.048   0.674   2.374   0.000   0.000  541.78  323.39  115.73  207.66    0.00    0.00 -99.000 -99.000 -99.000   0.543   0.381   0.135   0.203   0.128   0.073   0.070   0.065   0.126   0.651   0.067   0.018
   17 197   266  25.00  23.00   8.00 -99.000   5.494   2.072   3.422   3.932   0.509   3.422   0.000   0.000  547.27  327.32  116.24  211.08    0.00    0.00 -99.000 -99.000 -99.000   0.723   0.544   0.191   0.297   0.216   0.107   0.103   0.095   0.186   0.961   0.051   0.019
   17 198   267  22.00  26.00  10.00 -99.000   5.100   1.871   3.229   4.439   1.210   3.229   0.000   0.000  552.37  331.76  117.45  214.31    0.00    0.00 -99.000 -99.000 -99.000   0.648   0.511   0.181   0.283   0.212   0.103   0.099   0.091   0.178   0.925   0.121   0.018
   17 199   268  26.00  29.00  11.00 -99.000   6.300   2.240   4.060   2.310   1.299   1.011   0.000   0.000  558.67  334.07  118.75  215.32    0.00    0.00 -99.000 -99.000 -99.000   0.827   0.115   0.020   0.020   0.010   0.003   0.003   0.002   0.003   0.008   0.130   0.018
   17 200   269  26.00  32.00  15.00 -99.000   6.720   2.296   4.424   2.591   1.668   0.922   0.000   0.000  565.39  336.66  120.41  216.24    0.00    0.00 -99.000 -99.000 -99.000   0.741   0.113   0.020   0.020   0.010   0.003   0.003   0.002   0.003   0.008   0.167   0.018
   17 201   270  14.00  27.00  14.00 -99.000   3.392   1.104   2.288   2.419   1.581   0.838   0.000   0.000  568.78  339.08  121.99  217.08    0.00    0.00 -99.000 -99.000 -99.000   0.660   0.111   0.020   0.020   0.010   0.003   0.003   0.002   0.003   0.007   0.158   0.018
   17 202   271  25.00  28.00  13.00 -99.000   6.092   1.840   4.251   1.570   0.807   0.763   0.000   0.000  574.87  340.65  122.80  217.84    0.00    0.00 -99.000 -99.000 -99.000   0.587   0.109   0.019   0.020   0.010   0.003   0.003   0.002   0.003   0.007   0.081   0.017
   17 203   272  20.00  28.00  15.00 -99.000   4.956   1.401   3.555   2.159   1.323   0.836   0.000   0.000  579.83  342.80  124.12  218.68    0.00    0.00 -99.000 -99.000 -99.000   0.662   0.108   0.019   0.019   0.010   0.003   0.003   0.002   0.003   0.007   0.132   0.016
   17 204   273  14.00  23.00  15.00 -99.000   3.302   0.865   2.438   1.906   1.009   0.898   0.000   0.000  583.13  344.71  125.13  219.58    0.00    0.00 -99.000 -99.000 -99.000   0.725   0.106   0.019   0.019   0.010   0.003   0.002   0.002   0.003   0.007   0.101   0.017
   17 205   274   8.00  18.00  11.00 -99.000   1.712   0.408   1.303   1.414   0.434   0.980   0.000   0.000  584.84  346.12  125.57  220.56    0.00    0.00 -99.000 -99.000 -99.000   0.809   0.106   0.019   0.019   0.009   0.003   0.002   0.002   0.003   0.007   0.043   0.017
   17 206   275  12.00  17.00  11.00 -99.000   2.565   0.556   2.009   2.198   0.189   2.009   0.000   0.000  587.41  348.32  125.76  222.57    0.00    0.00 -99.000 -99.000 -99.000   0.466   0.339   0.117   0.165   0.120   0.057   0.055   0.051   0.101   0.539   0.019   0.017
   17 207   276   6.00  13.00  12.00 -99.000   1.244   0.247   0.997   1.180   0.183   0.997   0.000   0.000  588.65  349.50  125.94  223.56    0.00    0.00 -99.000 -99.000 -99.000   0.241   0.181   0.061   0.087   0.065   0.032   0.024   0.022   0.044   0.238   0.018   0.017
   17 208   277  10.00  19.00  11.00 -99.000   2.243   0.406   1.837   1.852   0.015   1.837   0.000   0.000  590.90  351.35  125.95  225.40    0.00    0.00 -99.000 -99.000 -99.000   0.432   0.315   0.111   0.173   0.138   0.082   0.044   0.040   0.079   0.424   0.002   0.019
   17 209   278  18.00  21.00  14.00 -99.000   4.264   0.701   3.564   3.753   0.189   3.564   0.000   0.000  595.16  355.11  126.14  228.96    0.00    0.00 -99.000 -99.000 -99.000   0.759   0.574   0.201   0.318   0.254   0.192   0.130   0.092   0.164   0.880   0.019   0.018
   17 210   279  24.00  27.00  12.00 -99.000   5.991   0.859   5.131   5.368   0.237   5.131   0.000   0.000  601.15  360.48  126.38  234.10    0.00    0.00 -99.000 -99.000 -99.000   1.007   0.792   0.276   0.442   0.354   0.284   0.249   0.177   0.243   1.308   0.024   0.020
   17 211   280  22.00  32.00  14.00 -99.000   5.903   0.695   5.208   5.729   0.521   5.208   0.000   0.000  607.05  366.20  126.90  239.30    0.00    0.00 -99.000 -99.000 -99.000   1.001   0.788   0.278   0.442   0.357   0.292   0.256   0.207   0.248   1.340   0.052   0.021
   17 212   281  21.00  30.00  15.00 -99.000   5.587   0.487   5.099   5.535   0.436   5.099   0.000   0.000  612.64  371.74  127.34  244.40    0.00    0.00 -99.000 -99.000 -99.000   0.963   0.759   0.268   0.432   0.347   0.291   0.256   0.205   0.245   1.332   0.044   0.021
   17 213   282  23.00  33.00  15.00 -99.000   6.344   0.319   6.024   6.231   0.207   6.024   0.000   0.000  618.98  377.97  127.54  250.43    0.00    0.00 -99.000 -99.000 -99.000   1.274   0.886   0.310   0.493   0.394   0.332   0.293   0.235   0.280   1.528   0.021   0.021
   17 214   283  22.00  30.00  17.00 -99.000   6.089   0.066   6.023   6.076   0.053   6.023   0.000   0.000  625.07  384.05  127.60  256.45    0.00    0.00 -99.000 -99.000 -99.000   1.276   0.895   0.310   0.492   0.393   0.330   0.290   0.233   0.279   1.525   0.005   0.020
   17 215   284  14.00  30.00  16.00 -99.000   3.814   0.000   3.814   3.826   0.012   3.814   0.000   0.000  628.89  387.87  127.61  260.26    0.00    0.00 -99.000 -99.000 -99.000   0.847   0.565   0.195   0.308   0.246   0.206   0.180   0.144   0.173   0.951   0.001   0.000
   17 216   285  15.00  28.00  18.00 -99.000   4.107   0.000   4.107   4.119   0.012   4.107   0.000   0.000  632.99  391.99  127.62  264.37    0.00    0.00 -99.000 -99.000 -99.000   0.889   0.616   0.212   0.335   0.267   0.225   0.194   0.156   0.187   1.027   0.001   0.000
   17 217   286  22.00  29.00  17.00 -99.000   5.988   0.000   5.988   6.000   0.012   5.988   0.000   0.000  638.98  397.99  127.63  270.36    0.00    0.00 -99.000 -99.000 -99.000   1.198   0.904   0.312   0.499   0.402   0.341   0.288   0.232   0.278   1.533   0.001   0.000
   17 218   287  13.00  20.00  12.00 -99.000   3.027   0.000   3.027   1.032   0.012   1.020   0.000   0.000  642.01  399.02  127.64  271.38    0.00    0.00 -99.000 -99.000 -99.000   0.832   0.115   0.020   0.020   0.011   0.007   0.004   0.003   0.003   0.007   0.001   0.000
   17 219   288  23.00  23.00   9.00 -99.000   5.407   0.000   5.407   0.957   0.012   0.945   0.000   0.000  647.42  399.98  127.66  272.32    0.00    0.00 -99.000 -99.000 -99.000   0.757   0.114   0.019   0.020   0.011   0.007   0.004   0.003   0.003   0.007   0.001   0.000
