*GHG emissions output file

*DSSAT Cropping System Model Ver. 4.8.5.000 -release  FEB 02, 2026 11:47:14

*RUN   1        : 1                         WHAPS048 TUDU1701    1
 MODEL          : WHAPS048 - Wheat
 EXPERIMENT     : TUDU1701 WH
 DATA PATH      :
 TREATMENT  1   : 1                         WHAPS048
  
!               |---------- Daily (g/ha) ----------|------- Cumulative (kg/ha) --------|---- Cum CO2-equiv kg[CO2eq]/ha ---|
!               Soil CO2  Net CO2      N2O      CH4 Soil CO2  Net CO2      N2O      CH4  Net CO2      N2O      CH4    Total
!                g[C]/ha  g[C]/ha  g[N]/ha  g[C]/ha kg[C]/ha kg[C]/ha kg[N]/ha kg[C]/ha    CO2eq    CO2eq    CO2eq    CO2eq
@YEAR DOY   DAS   CO2GED   CO2END   N2OGED   CH4GED    CO2EC   CO2ENC    N2OEC    CH4EC    CCEQC    NCEQC    MCEQC    TCEQC
   16 298     1    39999    -2500     0.01     0.00       40       -3     0.00     0.00       -9        0        0       -9
   16 299     2    40166    -2563     0.00     0.00       80       -5     0.00     0.00      -19        0        0      -19
   16 300     3    39620    -2594     0.01     0.00      120       -8     0.00     0.00      -28        0        0      -28
   16 301     4    34688    -2188     0.01     0.00      154      -10     0.00     0.00      -36        0        0      -36
   16 302     5    27567    -1438     0.01     0.00      182      -11     0.00     0.00      -41        0        0      -41
   16 303     6    19262     -500     0.01     0.00      201      -12     0.00     0.00      -43        0        0      -43
   16 304     7    12876      188     0.01     0.00      214      -12     0.00     0.00      -43        0        0      -43
   16 305     8     7175      656     0.02     0.00      221      -11     0.00     0.00      -40        0        0      -40
   16 306     9     4494      906     0.02     0.00      226      -10     0.00     0.00      -37        0        0      -37
   16 307    10     2217     1031     0.02     0.00      228       -9     0.00     0.00      -33        0        0      -33
   16 308    11     2246     1031     0.02     0.00      230       -8     0.00     0.00      -29        0        0      -29
   16 309    12     1664      781     0.03     0.00      232       -7     0.00     0.00      -26        0        0      -26
   16 310    13     1298      719     0.03     0.00      233       -6     0.00     0.00      -24        0        0      -24
   16 311    14     1569      750     0.02     0.00      235       -6     0.00     0.00      -21        0        0      -21
   16 312    15     1721      875     0.01     0.00      237       -5     0.00     0.00      -18        0        0      -18
   16 313    16     1110      531     0.02     0.00      238       -4     0.00     0.00      -16        0        0      -16
   16 314    17      881      469     0.03     0.00      239       -4     0.00     0.00      -14        0        0      -14
   16 315    18      819      438     0.03     0.00      239       -3     0.00     0.00      -13        0        0      -12
   16 316    19      606      344     0.01     0.00      240       -3     0.00     0.00      -11        0        0      -11
   16 317    20      537      344     0.01     0.00      241       -3     0.00     0.00      -10        0        0      -10
   16 318    21      541      281     0.03     0.00      241       -2     0.00     0.00       -9        0        0       -9
   16 319    22      449      250     0.05     0.00      242       -2     0.00     0.00       -8        0        0       -8
   16 320    23      331      188     0.06     0.00      242       -2     0.00     0.00       -7        0        0       -7
   16 321    24      247      156     0.03     0.00      242       -2     0.00     0.00       -7        0        0       -7
   16 322    25      404      219     0.02     0.00      242       -2     0.00     0.00       -6        0        0       -6
   16 323    26      774      469     0.04     0.00      243       -1     0.00     0.00       -4        0        0       -4
   16 324    27     1692      781     0.02     0.00      245        0     0.00     0.00       -1        0        0       -1
   16 325    28     3244      969     0.02     0.00      248        1     0.00     0.00        2        0        0        2
   16 326    29     5625      781     0.05     0.00      254        1     0.00     0.00        5        0        0        5
   16 327    30     6107      688     0.07     0.00      260        2     0.00     0.00        8        0        0        8
   16 328    31     6325      656     0.08     0.00      266        3     0.00     0.00       10        0        0       10
   16 329    32     4005      875     0.09     0.00      270        4     0.00     0.00       13        0        0       14
   16 330    33     5409      719     0.09     0.00      276        4     0.00     0.00       16        0        0       16
   16 331    34     6151      781     0.09     0.00      282        5     0.00     0.00       19        0        0       19
   16 332    35     4796      813     0.09     0.00      287        6     0.00     0.00       22        1        0       22
   16 333    36     1893      938     0.09     0.00      289        7     0.00     0.00       25        1        0       26
   16 334    37      976      531     0.10     0.00      289        7     0.00     0.00       27        1        0       28
   16 335    38      396      281     0.10     0.00      290        8     0.00     0.00       28        1        0       29
   16 336    39      119       63     0.10     0.00      290        8     0.00     0.00       28        1        0       29
   16 337    40       55       63     0.10     0.00      290        8     0.00     0.00       29        1        0       29
   16 338    41       44       31     0.10     0.00      290        8     0.00     0.00       29        1        0       29
   16 339    42       38        0     0.11     0.00      290        8     0.00     0.00       29        1        0       30
   16 340    43       29       31     0.11     0.00      290        8     0.00     0.00       29        1        0       30
   16 341    44       34       31     0.11     0.00      290        8     0.00     0.00       29        1        0       30
   16 342    45        3        0     0.12     0.00      290        8     0.00     0.00       29        1        0       30
   16 343    46        0        0     0.12     0.00      290        8     0.00     0.00       29        1        0       30
   16 344    47        0        0     0.12     0.00      290        8     0.00     0.00       29        1        0       30
   16 345    48        6        0     0.12     0.00      290        8     0.00     0.00       29        1        0       30
   16 346    49       40        0     0.12     0.00      290        8     0.00     0.00       29        1        0       30
   16 347    50       79       63     0.13     0.00      290        8     0.00     0.00       29        1        0       30
   16 348    51      137      125     0.13     0.00      290        8     0.00     0.00       30        1        0       31
   16 349    52      172       94     0.13     0.00      291        8     0.00     0.00       30        1        0       31
   16 350    53      246      219     0.13     0.00      291        8     0.00     0.00       31        2        0       32
   16 351    54      222      125     0.13     0.00      291        9     0.00     0.00       31        2        0       33
   16 352    55      188      125     0.13     0.00      291        9     0.00     0.00       32        2        0       33
   16 353    56      123       63     0.14     0.00      291        9     0.00     0.00       32        2        0       34
   16 354    57      109       94     0.14     0.00      292        9     0.00     0.00       32        2        0       34
   16 355    58       49       63     0.14     0.00      292        9     0.00     0.00       32        2        0       34
   16 356    59       18        0     0.14     0.00      292        9     0.00     0.00       32        2        0       34
   16 357    60       12       31     0.14     0.00      292        9     0.00     0.00       33        2        0       35
   16 358    61        6        0     0.14     0.00      292        9     0.00     0.00       33        2        0       35
   16 359    62        4        0     0.14     0.00      292        9     0.00     0.00       33        2        0       35
   16 360    63       16        0     0.15     0.00      292        9     0.00     0.00       33        2        0       35
   16 361    64       99       31     0.15     0.00      292        9     0.00     0.00       33        2        0       35
   16 362    65      298      219     0.15     0.00      292        9     0.00     0.00       33        2        0       36
   16 363    66      487      281     0.15     0.00      293        9     0.01     0.00       35        2        0       37
   16 364    67      587      313     0.15     0.00      293       10     0.01     0.00       36        2        0       38
   16 365    68      407      313     0.15     0.00      294       10     0.01     0.00       37        3        0       39
   16 366    69      105       63     0.15     0.00      294       10     0.01     0.00       37        3        0       40
   17 001    70        1       31     0.15     0.00      294       10     0.01     0.00       37        3        0       40
   17 002    71        0        0     0.15     0.00      294       10     0.01     0.00       37        3        0       40
   17 003    72        0        0     0.15     0.00      294       10     0.01     0.00       37        3        0       40
   17 004    73        0        0     0.15     0.00      294       10     0.01     0.00       37        3        0       40
   17 005    74        0        0     0.15     0.00      294       10     0.01     0.00       37        3        0       40
   17 006    75        0        0     0.15     0.00      294       10     0.01     0.00       37        3        0       40
   17 007    76        0        0     0.15     0.00      294       10     0.01     0.00       37        3        0       40
   17 008    77        0        0     0.15     0.00      294       10     0.01     0.00       37        3        0       40
   17 009    78        0        0     0.15     0.00      294       10     0.01     0.00       37        3        0       40
   17 010    79        0        0     0.15     0.00      294       10     0.01     0.00       37        3        0       40
   17 011    80        0        0     0.15     0.00      294       10     0.01     0.00       37        3        0       41
   17 012    81        0        0     0.15     0.00      294       10     0.01     0.00       37        3        0       41
   17 013    82        0        0     0.05     0.00      294       10     0.01     0.00       37        3        0       41
   17 014    83        0        0     0.09     0.00      294       10     0.01     0.00       37        3        0       41
   17 015    84        0        0     0.13     0.00      294       10     0.01     0.00       37        4        0       41
   17 016    85        0        0     0.15     0.00      294       10     0.01     0.00       37        4        0       41
   17 017    86        0        0     0.15     0.00      294       10     0.01     0.00       37        4        0       41
   17 018    87        0        0     0.15     0.00      294       10     0.01     0.00       37        4        0       41
   17 019    88        0        0     0.15     0.00      294       10     0.01     0.00       37        4        0       41
   17 020    89        0        0     0.15     0.00      294       10     0.01     0.00       37        4        0       41
   17 021    90        0        0     0.15     0.00      294       10     0.01     0.00       37        4        0       41
   17 022    91        0        0     0.14     0.00      294       10     0.01     0.00       37        4        0       41
   17 023    92        0        0     0.14     0.00      294       10     0.01     0.00       37        4        0       41
   17 024    93        0        0     0.14     0.00      294       10     0.01     0.00       37        4        0       41
   17 025    94        0        0     0.13     0.00      294       10     0.01     0.00       37        4        0       41
   17 026    95        0        0     0.13     0.00      294       10     0.01     0.00       37        4        0       41
   17 027    96        0        0     0.13     0.00      294       10     0.01     0.00       37        4        0       42
   17 028    97        0        0     0.12     0.00      294       10     0.01     0.00       37        4        0       42
   17 029    98        0        0     0.12     0.00      294       10     0.01     0.00       37        4        0       42
   17 030    99        0        0     0.12     0.00      294       10     0.01     0.00       37        5        0       42
   17 031   100        0        0     0.12     0.00      294       10     0.01     0.00       37        5        0       42
   17 032   101        0        0     0.06     0.00      294       10     0.01     0.00       37        5        0       42
   17 033   102        0        0     0.09     0.00      294       10     0.01     0.00       37        5        0       42
   17 034   103        0        0     0.11     0.00      294       10     0.01     0.00       37        5        0       42
   17 035   104        0        0     0.11     0.00      294       10     0.01     0.00       37        5        0       42
   17 036   105        8        0     0.23     0.00      294       10     0.01     0.00       37        5        0       42
   17 037   106       13        0     0.41     0.00      294       10     0.01     0.00       37        5        0       42
   17 038   107       14        0     0.60     0.00      294       10     0.01     0.00       37        5        0       42
   17 039   108       14       31     0.78     0.00      294       10     0.01     0.00       37        6        0       43
   17 040   109        9        0     0.93     0.00      294       10     0.01     0.00       37        6        0       43
   17 041   110        0        0     1.04     0.00      294       10     0.01     0.00       37        7        0       44
   17 042   111        0        0     1.11     0.00      294       10     0.02     0.00       37        7        0       44
   17 043   112        0        0     1.15     0.00      294       10     0.02     0.00       37        8        0       45
   17 044   113        0        0     1.16     0.00      294       10     0.02     0.00       37        8        0       45
   17 045   114        0        0     1.17     0.00      294       10     0.02     0.00       37        9        0       46
   17 046   115        0        0     1.19     0.00      294       10     0.02     0.00       37        9        0       47
   17 047   116        0        0     1.21     0.00      294       10     0.02     0.00       37       10        0       47
   17 048   117        0        0     1.20     0.00      294       10     0.02     0.00       37       10        0       48
   17 049   118        0        0     1.15     0.00      294       10     0.02     0.00       37       11        0       48
   17 050   119        0        0     1.23     0.00      294       10     0.02     0.00       37       12        0       49
   17 051   120        0        0     1.21     0.00      294       10     0.03     0.00       37       12        0       49
   17 052   121       12        0     1.19     0.00      294       10     0.03     0.00       37       13        0       50
   17 053   122       45       31     0.61     0.00      294       10     0.03     0.00       37       13        0       50
   17 054   123      318      125     0.93     0.00      294       10     0.03     0.00       38       13        0       51
   17 055   124     9810     -719     1.20     0.00      304       10     0.03     0.00       35       14        0       49
   17 056   125    14616    -1344     1.27     0.00      318        8     0.03     0.00       30       15        0       45
   17 057   126    10617     -844     1.23     0.00      329        7     0.03     0.00       27       15        0       42
   17 058   127     6295     -313     1.16     0.00      335        7     0.03     0.00       26       16        0       42
   17 059   128     1098      188     1.09     0.00      336        7     0.03     0.00       27       16        0       43
   17 060   129       38       63     0.32     0.00      337        7     0.03     0.00       27       16        0       43
   17 061   130       30        0     0.32     0.00      337        7     0.04     0.00       27       16        0       43
   17 062   131       60       31     0.65     0.00      337        7     0.04     0.00       27       17        0       44
   17 063   132       38       31     0.83     0.00      337        7     0.04     0.00       27       17        0       44
   17 064   133      156       63     0.85     0.00      337        7     0.04     0.00       27       18        0       45
   17 065   134      669      219     0.67     0.00      337        8     0.04     0.00       28       18        0       46
   17 066   135     1932      -31     0.61     0.00      339        8     0.04     0.00       28       18        0       46
   17 067   136      305      188     0.63     0.00      340        8     0.04     0.00       29       18        0       47
   17 068   137      983       94     0.21     0.00      341        8     0.04     0.00       29       19        0       48
   17 069   138      308      156     0.18     0.00      341        8     0.04     0.00       30       19        0       48
   17 070   139      109       63     0.35     0.00      341        8     0.04     0.00       30       19        0       49
   17 071   140       32       63     0.45     0.00      341        8     0.04     0.00       30       19        0       49
   17 072   141       56        0     0.45     0.00      341        8     0.04     0.00       30       19        0       49
   17 073   142       63       31     0.40     0.00      341        8     0.04     0.00       30       19        0       50
   17 074   143        8        0     0.34     0.00      341        8     0.04     0.00       30       20        0       50
   17 075   144       37       31     0.30     0.00      341        8     0.04     0.00       30       20        0       50
   17 076   145      992       31     0.27     0.00      342        8     0.04     0.00       31       20        0       50
   17 077   146     5599     -281     0.23     0.00      348        8     0.04     0.00       29       20        0       49
   17 078   147     9089     -656     0.20     0.00      357        7     0.04     0.00       27       20        0       47
   17 079   148    14547    -1156     0.18     0.00      372        6     0.04     0.00       23       20        0       43
   17 080   149    17283    -1156     0.16     0.00      389        5     0.04     0.00       19       20        0       39
   17 081   150    19174    -1250     0.14     0.00      408        4     0.04     0.00       14       20        0       34
   17 082   151    15811    -1031     0.12     0.00      424        3     0.04     0.00       10       20        0       31
   17 083   152    16031    -1000     0.11     0.00      440        2     0.04     0.00        7       20        0       27
   17 084   153    11473     -625     0.10     0.00      451        1     0.04     0.00        4       20        0       25
   17 085   154     9025     -375     0.09     0.00      460        1     0.04     0.00        3       20        0       23
   17 086   155     5420     -125     0.09     0.00      466        1     0.04     0.00        2       21        0       23
   17 087   156     6508     -188     0.08     0.00      472        0     0.04     0.00        2       21        0       22
   17 088   157     6295      -63     0.08     0.00      479        0     0.04     0.00        1       21        0       22
   17 089   158     9319       31     0.07     0.00      488        0     0.04     0.00        2       21        0       22
   17 090   159    10150      156     0.07     0.00      498        1     0.04     0.00        2       21        0       23
   17 091   160    13806      500     0.06     0.00      512        1     0.04     0.00        4       21        0       25
   17 092   161    14739      969     0.06     0.00      527        2     0.04     0.00        8       21        0       28
   17 093   162    15193     1375     0.05     0.00      542        3     0.04     0.00       13       21        0       33
   17 094   163    15034     1375     0.05     0.00      557        5     0.04     0.00       18       21        0       38
   17 095   164    13532     1375     0.04     0.00      570        6     0.04     0.00       23       21        0       43
   17 096   165    11298     1063     0.04     0.00      582        7     0.04     0.00       27       21        0       47
   17 097   166     7917      656     0.04     0.00      590        8     0.04     0.00       29       21        0       50
   17 098   167     6088      625     0.04     0.00      596        9     0.04     0.00       31       21        0       52
   17 099   168     5544      625     0.04     0.00      601        9     0.04     0.00       34       21        0       54
   17 100   169     6871      844     0.04     0.00      608       10     0.04     0.00       37       21        0       58
   17 101   170     8315     1406     0.04     0.00      616       11     0.04     0.00       42       21        0       63
   17 102   171     8116     1531     0.03     0.00      624       13     0.04     0.00       47       21        0       68
   17 103   172     7691     1594     0.03     0.00      632       15     0.04     0.00       53       21        0       74
   17 104   173     7080     1625     0.03     0.00      639       16     0.04     0.00       59       21        0       80
   17 105   174     5818     1438     0.03     0.00      645       18     0.04     0.00       65       21        0       86
   17 106   175     4766     1281     0.03     0.00      650       19     0.04     0.00       69       21        0       90
   17 107   176     5152     1188     0.03     0.00      655       20     0.04     0.00       74       21        0       95
   17 108   177     5751      563     0.02     0.00      661       21     0.04     0.00       76       21        0       97
   17 109   178     3373      281     0.01     0.00      664       21     0.04     0.00       77       21        0       98
   17 110   179     1022      -63     0.02     0.00      665       21     0.04     0.00       76       21        0       97
   17 111   180        0        0     0.03     0.00      665       21     0.04     0.00       76       21        0       98
   17 112   181        0        0     0.03     0.00      665       21     0.04     0.00       76       21        0       98
   17 113   182        0        0     0.02     0.00      665       21     0.04     0.00       76       21        0       98
   17 114   183        0        0     0.03     0.00      665       21     0.04     0.00       76       21        0       98
   17 115   184        0        0     0.03     0.00      665       21     0.04     0.00       76       21        0       98
   17 116   185      835      -63     0.01     0.00      666       21     0.04     0.00       76       21        0       97
   17 117   186       51        0     0.01     0.00      666       21     0.05     0.00       76       21        0       97
   17 118   187        0        0     0.01     0.00      666       21     0.05     0.00       76       21        0       97
   17 119   188        0        0     0.01     0.00      666       21     0.05     0.00       76       21        0       97
   17 120   189        0        0     0.02     0.00      666       21     0.05     0.00       76       21        0       97
   17 121   190        0        0     0.03     0.00      666       21     0.05     0.00       76       21        0       97
   17 122   191      248      125     0.01     0.00      666       21     0.05     0.00       77       21        0       98
   17 123   192     1703      969     0.02     0.00      668       22     0.05     0.00       80       21        0      101
   17 124   193     3482     1844     0.03     0.00      671       24     0.05     0.00       87       21        0      108
   17 125   194     4353     2094     0.03     0.00      676       26     0.05     0.00       95       21        0      116
   17 126   195     5227     2531     0.03     0.00      681       28     0.05     0.00      104       21        0      125
   17 127   196     6272     2969     0.03     0.00      687       31     0.05     0.00      115       21        0      136
   17 128   197     6840     3250     0.01     0.00      694       35     0.05     0.00      127       21        0      148
   17 129   198     6929     2906     0.01     0.00      701       37     0.05     0.00      138       21        0      159
   17 130   199     7012     2563     0.02     0.00      708       40     0.05     0.00      147       21        0      168
   17 131   200     6289     2250     0.03     0.00      714       42     0.05     0.00      155       21        0      176
   17 132   201     5774     2281     0.04     0.00      720       45     0.05     0.00      164       21        0      185
   17 133   202     6460     3063     0.04     0.00      727       48     0.05     0.00      175       21        0      196
   17 134   203     7814     3813     0.04     0.00      734       51     0.05     0.00      189       21        0      210
   17 135   204     9496     4750     0.01     0.00      744       56     0.05     0.00      206       21        0      227
   17 136   205    11439     5125     0.01     0.00      755       61     0.05     0.00      225       21        0      246
   17 137   206    12535     5125     0.03     0.00      768       66     0.05     0.00      244       21        0      265
   17 138   207    12275     5063     0.04     0.00      780       72     0.05     0.00      262       21        0      284
   17 139   208    12274     5531     0.05     0.00      792       77     0.05     0.00      283       21        0      304
   17 140   209    12181     5750     0.05     0.00      805       83     0.05     0.00      304       21        0      325
   17 141   210    11720     5438     0.05     0.00      816       88     0.05     0.00      324       21        0      345
   17 142   211    11359     5219     0.05     0.00      828       93     0.05     0.00      343       21        0      364
   17 143   212    11291     5188     0.05     0.00      839       99     0.05     0.00      362       21        0      383
   17 144   213    11083     4875     0.05     0.00      850      104     0.05     0.00      380       21        0      401
   17 145   214    20172     2250     0.99     0.00      870      106     0.05     0.00      388       22        0      410
   17 146   215    19983     2688     1.70     0.00      890      108     0.05     0.00      398       23        0      421
   17 147   216    19156     3188     2.16     0.00      909      112     0.05     0.00      410       24        0      433
   17 148   217    18078     3688     2.44     0.00      927      115     0.05     0.00      423       25        0      448
   17 149   218    17369     4156     2.53     0.00      945      119     0.06     0.00      438       26        0      464
   17 150   219    17958     5000     2.52     0.00      963      124     0.06     0.00      457       27        0      484
   17 151   220    35920     2375     2.20     0.00      999      127     0.06     0.00      466       28        0      494
   17 152   221    36104     3344     2.02     0.00     1035      130     0.06     0.00      478       29        0      507
   17 153   222    34135     4188     1.77     0.00     1069      134     0.06     0.00      493       30        0      523
   17 154   223    30516     4781     1.54     0.00     1099      139     0.07     0.00      511       31        0      541
   17 155   224    47425      500     1.25     0.00     1147      140     0.07     0.00      513       31        0      544
   17 156   225    38804     1094     1.04     0.00     1186      141     0.07     0.00      517       32        0      548
   17 157   226    37444      531     0.85     0.00     1223      141     0.07     0.00      519       32        0      551
   17 158   227    34043      438     0.39     0.00     1257      142     0.07     0.00      520       32        0      553
   17 159   228    30070      125     0.52     0.00     1287      142     0.07     0.00      521       33        0      553
   17 160   229    21135     1250     0.57     0.00     1308      143     0.07     0.00      525       33        0      558
   17 161   230    17456     2219     0.27     0.00     1326      145     0.07     0.00      533       33        0      566
   17 162   231    15170     2781     0.43     0.00     1341      148     0.07     0.00      544       33        0      577
   17 163   232    13599     3938     0.38     0.00     1355      152     0.07     0.00      558       33        0      591
   17 164   233    13987     4844     0.33     0.00     1369      157     0.07     0.00      576       34        0      609
   17 165   234    20976     3313     1.65     0.00     1390      160     0.07     0.00      588       34        0      622
   17 166   235    19445     3563     2.57     0.00     1409      164     0.08     0.00      601       36        0      636
   17 167   236    24519     2531     2.81     0.00     1434      166     0.08     0.00      610       37        0      647
   17 168   237    21631     2625     2.99     0.00     1455      169     0.08     0.00      620       38        0      658
   17 169   238    20055     2313     2.91     0.00     1475      171     0.08     0.00      628       40        0      668
   17 170   239    19663     1750     2.70     0.00     1495      173     0.09     0.00      635       41        0      676
   17 171   240    17482     2250     2.44     0.00     1512      175     0.09     0.00      643       42        0      685
   17 172   241    14704     2781     2.18     0.00     1527      178     0.09     0.00      653       43        0      696
   17 173   242    12697     3281     1.94     0.00     1540      181     0.09     0.00      665       44        0      709
   17 174   243    19501     2344     1.56     0.00     1559      184     0.10     0.00      674       45        0      719
   17 175   244    14562     3688     1.51     0.00     1574      187     0.10     0.00      687       45        0      733
   17 176   245    11655     4125     1.36     0.00     1585      191     0.10     0.00      703       46        0      749
   17 177   246    11438     3688     1.16     0.00     1597      195     0.10     0.00      716       47        0      763
   17 178   247    17586     2406     0.94     0.00     1615      198     0.10     0.00      725       47        0      772
   17 179   248    28354     -125     0.77     0.00     1643      197     0.10     0.00      724       47        0      772
   17 180   249    49577    -4625     0.40     0.00     1692      193     0.10     0.00      708       48        0      755
   17 181   250    51047    -5219     0.57     0.00     1743      188     0.10     0.00      688       48        0      736
   17 182   251    48463    -4531     0.70     0.00     1792      183     0.10     0.00      672       48        0      720
   17 183   252    38119    -2625     0.64     0.00     1830      180     0.10     0.00      662       48        0      711
   17 184   253    30436    -1469     0.61     0.00     1861      179     0.10     0.00      657       49        0      705
   17 185   254    26069     -750     0.57     0.00     1887      178     0.10     0.00      654       49        0      703
   17 186   255    21445       94     0.54     0.00     1908      178     0.11     0.00      654       49        0      704
   17 187   256    15848     1406     0.52     0.00     1924      180     0.11     0.00      659       49        0      709
   17 188   257     6165     3563     0.49     0.00     1930      183     0.11     0.00      673       50        0      722
   17 189   258     6196     3906     0.46     0.00     1936      187     0.11     0.00      687       50        0      737
   17 190   259     6217     4344     0.44     0.00     1942      192     0.11     0.00      703       50        0      753
   17 191   260    52876    -4844     0.14     0.00     1995      187     0.11     0.00      685       50        0      735
   17 192   261    54063    -4594     0.20     0.00     2049      182     0.11     0.00      668       50        0      718
   17 193   262    51356    -4000     0.27     0.00     2101      178     0.11     0.00      653       50        0      704
   17 194   263    48155    -3438     0.30     0.00     2149      175     0.11     0.00      641       51        0      691
   17 195   264    39957    -2188     0.43     0.00     2189      172     0.11     0.00      633       51        0      684
   17 196   265    35811    -1813     0.20     0.00     2225      171     0.11     0.00      626       51        0      677
   17 197   266    32142    -1469     0.40     0.00     2257      169     0.11     0.00      621       51        0      672
   17 198   267    28281     -813     0.42     0.00     2285      168     0.11     0.00      618       51        0      669
   17 199   268    23613      250     0.41     0.00     2309      169     0.11     0.00      619       51        0      670
   17 200   269    21303     1000     0.41     0.00     2330      170     0.11     0.00      622       52        0      674
   17 201   270    18706     1938     0.42     0.00     2349      172     0.11     0.00      630       52        0      681
   17 202   271    15040     2781     0.42     0.00     2364      174     0.11     0.00      640       52        0      692
   17 203   272    13361     3344     0.42     0.00     2377      178     0.11     0.00      652       52        0      704
   17 204   273    13871     3344     0.39     0.00     2391      181     0.11     0.00      664       52        0      717
   17 205   274     9986     3938     0.42     0.00     2401      185     0.11     0.00      679       53        0      731
   17 206   275    11376     3188     0.39     0.00     2412      188     0.11     0.00      690       53        0      743
   17 207   276    30341     -719     0.15     0.00     2443      187     0.11     0.00      688       53        0      741
   17 208   277    23515     1313     0.13     0.00     2466      189     0.11     0.00      693       53        0      746
   17 209   278    21456     1250     0.13     0.00     2488      190     0.11     0.00      697       53        0      750
   17 210   279    23700      969     0.29     0.00     2511      191     0.11     0.00      701       53        0      754
   17 211   280    27019      938     0.39     0.00     2538      192     0.11     0.00      704       53        0      757
   17 212   281    30602     1219     0.38     0.00     2569      193     0.11     0.00      709       53        0      762
   17 213   282    32184     2000     0.37     0.00     2601      195     0.11     0.00      716       54        0      770
   17 214   283    37664     1750     0.22     0.00     2639      197     0.11     0.00      722       54        0      776
   17 215   284    39011     2094     0.41     0.00     2678      199     0.12     0.00      730       54        0      784
   17 216   285    40015     2188     0.22     0.00     2718      201     0.12     0.00      738       54        0      792
   17 217   286    39569     2344     0.47     0.00     2757      203     0.12     0.00      747       54        0      801
   17 218   287    36245     3094     0.56     0.00     2794      207     0.12     0.00      758       55        0      813
   17 219   288    31449     3250     0.59     0.00     2825      210     0.12     0.00      770       55        0      825

*DSSAT Cropping System Model Ver. 4.8.5.000 -release  FEB 02, 2026 11:47:14

*RUN   2        : 2                         WHAPS048 TUDU1701    2
 MODEL          : WHAPS048 - Wheat
 EXPERIMENT     : TUDU1701 WH
 DATA PATH      :
 TREATMENT  2   : 2                         WHAPS048
  
!               |---------- Daily (g/ha) ----------|------- Cumulative (kg/ha) --------|---- Cum CO2-equiv kg[CO2eq]/ha ---|
!               Soil CO2  Net CO2      N2O      CH4 Soil CO2  Net CO2      N2O      CH4  Net CO2      N2O      CH4    Total
!                g[C]/ha  g[C]/ha  g[N]/ha  g[C]/ha kg[C]/ha kg[C]/ha kg[N]/ha kg[C]/ha    CO2eq    CO2eq    CO2eq    CO2eq
@YEAR DOY   DAS   CO2GED   CO2END   N2OGED   CH4GED    CO2EC   CO2ENC    N2OEC    CH4EC    CCEQC    NCEQC    MCEQC    TCEQC
   16 298     1    39999    -2500     0.01     0.00       40       -3     0.00     0.00       -9        0        0       -9
   16 299     2    40166    -2563     0.00     0.00       80       -5     0.00     0.00      -19        0        0      -19
   16 300     3    39620    -2594     0.01     0.00      120       -8     0.00     0.00      -28        0        0      -28
   16 301     4    34688    -2188     0.01     0.00      154      -10     0.00     0.00      -36        0        0      -36
   16 302     5    27567    -1438     0.01     0.00      182      -11     0.00     0.00      -41        0        0      -41
   16 303     6    19262     -500     0.01     0.00      201      -12     0.00     0.00      -43        0        0      -43
   16 304     7    12876      188     0.01     0.00      214      -12     0.00     0.00      -43        0        0      -43
   16 305     8     7175      656     0.02     0.00      221      -11     0.00     0.00      -40        0        0      -40
   16 306     9     4494      906     0.02     0.00      226      -10     0.00     0.00      -37        0        0      -37
   16 307    10     2217     1031     0.02     0.00      228       -9     0.00     0.00      -33        0        0      -33
   16 308    11     2246     1031     0.02     0.00      230       -8     0.00     0.00      -29        0        0      -29
   16 309    12     1664      781     0.03     0.00      232       -7     0.00     0.00      -26        0        0      -26
   16 310    13     1298      719     0.03     0.00      233       -6     0.00     0.00      -24        0        0      -24
   16 311    14     1569      750     0.02     0.00      235       -6     0.00     0.00      -21        0        0      -21
   16 312    15     1721      875     0.01     0.00      237       -5     0.00     0.00      -18        0        0      -18
   16 313    16     1110      531     0.02     0.00      238       -4     0.00     0.00      -16        0        0      -16
   16 314    17      881      469     0.03     0.00      239       -4     0.00     0.00      -14        0        0      -14
   16 315    18      819      438     0.03     0.00      239       -3     0.00     0.00      -13        0        0      -12
   16 316    19      606      344     0.01     0.00      240       -3     0.00     0.00      -11        0        0      -11
   16 317    20      537      344     0.01     0.00      241       -3     0.00     0.00      -10        0        0      -10
   16 318    21      541      281     0.03     0.00      241       -2     0.00     0.00       -9        0        0       -9
   16 319    22      449      250     0.05     0.00      242       -2     0.00     0.00       -8        0        0       -8
   16 320    23      331      188     0.06     0.00      242       -2     0.00     0.00       -7        0        0       -7
   16 321    24      247      156     0.03     0.00      242       -2     0.00     0.00       -7        0        0       -7
   16 322    25      404      219     0.02     0.00      242       -2     0.00     0.00       -6        0        0       -6
   16 323    26      774      469     0.04     0.00      243       -1     0.00     0.00       -4        0        0       -4
   16 324    27     1692      781     0.02     0.00      245        0     0.00     0.00       -1        0        0       -1
   16 325    28     3244      969     0.02     0.00      248        1     0.00     0.00        2        0        0        2
   16 326    29     5625      781     0.05     0.00      254        1     0.00     0.00        5        0        0        5
   16 327    30     6107      688     0.07     0.00      260        2     0.00     0.00        8        0        0        8
   16 328    31     6325      656     0.08     0.00      266        3     0.00     0.00       10        0        0       10
   16 329    32     4005      875     0.09     0.00      270        4     0.00     0.00       13        0        0       14
   16 330    33     5409      719     0.09     0.00      276        4     0.00     0.00       16        0        0       16
   16 331    34     6151      781     0.09     0.00      282        5     0.00     0.00       19        0        0       19
   16 332    35     4796      813     0.09     0.00      287        6     0.00     0.00       22        1        0       22
   16 333    36     1893      938     0.09     0.00      289        7     0.00     0.00       25        1        0       26
   16 334    37      976      531     0.10     0.00      289        7     0.00     0.00       27        1        0       28
   16 335    38      396      281     0.10     0.00      290        8     0.00     0.00       28        1        0       29
   16 336    39      119       63     0.10     0.00      290        8     0.00     0.00       28        1        0       29
   16 337    40       55       63     0.10     0.00      290        8     0.00     0.00       29        1        0       29
   16 338    41       44       31     0.10     0.00      290        8     0.00     0.00       29        1        0       29
   16 339    42       38        0     0.11     0.00      290        8     0.00     0.00       29        1        0       30
   16 340    43       29       31     0.11     0.00      290        8     0.00     0.00       29        1        0       30
   16 341    44       34       31     0.11     0.00      290        8     0.00     0.00       29        1        0       30
   16 342    45        3        0     0.12     0.00      290        8     0.00     0.00       29        1        0       30
   16 343    46        0        0     0.12     0.00      290        8     0.00     0.00       29        1        0       30
   16 344    47        0        0     0.12     0.00      290        8     0.00     0.00       29        1        0       30
   16 345    48        6        0     0.12     0.00      290        8     0.00     0.00       29        1        0       30
   16 346    49       40        0     0.12     0.00      290        8     0.00     0.00       29        1        0       30
   16 347    50       79       63     0.13     0.00      290        8     0.00     0.00       29        1        0       30
   16 348    51      137      125     0.13     0.00      290        8     0.00     0.00       30        1        0       31
   16 349    52      172       94     0.13     0.00      291        8     0.00     0.00       30        1        0       31
   16 350    53      246      219     0.13     0.00      291        8     0.00     0.00       31        2        0       32
   16 351    54      222      125     0.13     0.00      291        9     0.00     0.00       31        2        0       33
   16 352    55      188      125     0.13     0.00      291        9     0.00     0.00       32        2        0       33
   16 353    56      123       63     0.14     0.00      291        9     0.00     0.00       32        2        0       34
   16 354    57      109       94     0.14     0.00      292        9     0.00     0.00       32        2        0       34
   16 355    58       49       63     0.14     0.00      292        9     0.00     0.00       32        2        0       34
   16 356    59       18        0     0.14     0.00      292        9     0.00     0.00       32        2        0       34
   16 357    60       12       31     0.14     0.00      292        9     0.00     0.00       33        2        0       35
   16 358    61        6        0     0.14     0.00      292        9     0.00     0.00       33        2        0       35
   16 359    62        4        0     0.14     0.00      292        9     0.00     0.00       33        2        0       35
   16 360    63       16        0     0.15     0.00      292        9     0.00     0.00       33        2        0       35
   16 361    64       99       31     0.15     0.00      292        9     0.00     0.00       33        2        0       35
   16 362    65      298      219     0.15     0.00      292        9     0.00     0.00       33        2        0       36
   16 363    66      487      281     0.15     0.00      293        9     0.01     0.00       35        2        0       37
   16 364    67      587      313     0.15     0.00      293       10     0.01     0.00       36        2        0       38
   16 365    68      407      313     0.15     0.00      294       10     0.01     0.00       37        3        0       39
   16 366    69      105       63     0.15     0.00      294       10     0.01     0.00       37        3        0       40
   17 001    70        1       31     0.15     0.00      294       10     0.01     0.00       37        3        0       40
   17 002    71        0        0     0.15     0.00      294       10     0.01     0.00       37        3        0       40
   17 003    72        0        0     0.15     0.00      294       10     0.01     0.00       37        3        0       40
   17 004    73        0        0     0.15     0.00      294       10     0.01     0.00       37        3        0       40
   17 005    74        0        0     0.15     0.00      294       10     0.01     0.00       37        3        0       40
   17 006    75        0        0     0.15     0.00      294       10     0.01     0.00       37        3        0       40
   17 007    76        0        0     0.15     0.00      294       10     0.01     0.00       37        3        0       40
   17 008    77        0        0     0.15     0.00      294       10     0.01     0.00       37        3        0       40
   17 009    78        0        0     0.15     0.00      294       10     0.01     0.00       37        3        0       40
   17 010    79        0        0     0.15     0.00      294       10     0.01     0.00       37        3        0       40
   17 011    80        0        0     0.15     0.00      294       10     0.01     0.00       37        3        0       41
   17 012    81        0        0     0.15     0.00      294       10     0.01     0.00       37        3        0       41
   17 013    82        0        0     0.05     0.00      294       10     0.01     0.00       37        3        0       41
   17 014    83        0        0     0.09     0.00      294       10     0.01     0.00       37        3        0       41
   17 015    84        0        0     0.13     0.00      294       10     0.01     0.00       37        4        0       41
   17 016    85        0        0     0.15     0.00      294       10     0.01     0.00       37        4        0       41
   17 017    86        0        0     0.15     0.00      294       10     0.01     0.00       37        4        0       41
   17 018    87        0        0     0.15     0.00      294       10     0.01     0.00       37        4        0       41
   17 019    88        0        0     0.15     0.00      294       10     0.01     0.00       37        4        0       41
   17 020    89        0        0     0.15     0.00      294       10     0.01     0.00       37        4        0       41
   17 021    90        0        0     0.15     0.00      294       10     0.01     0.00       37        4        0       41
   17 022    91        0        0     0.14     0.00      294       10     0.01     0.00       37        4        0       41
   17 023    92        0        0     0.14     0.00      294       10     0.01     0.00       37        4        0       41
   17 024    93        0        0     0.14     0.00      294       10     0.01     0.00       37        4        0       41
   17 025    94        0        0     0.13     0.00      294       10     0.01     0.00       37        4        0       41
   17 026    95        0        0     0.13     0.00      294       10     0.01     0.00       37        4        0       41
   17 027    96        0        0     0.13     0.00      294       10     0.01     0.00       37        4        0       42
   17 028    97        0        0     0.12     0.00      294       10     0.01     0.00       37        4        0       42
   17 029    98        0        0     0.12     0.00      294       10     0.01     0.00       37        4        0       42
   17 030    99        0        0     0.12     0.00      294       10     0.01     0.00       37        5        0       42
   17 031   100        0        0     0.12     0.00      294       10     0.01     0.00       37        5        0       42
   17 032   101        0        0     0.06     0.00      294       10     0.01     0.00       37        5        0       42
   17 033   102        0        0     0.09     0.00      294       10     0.01     0.00       37        5        0       42
   17 034   103        0        0     0.11     0.00      294       10     0.01     0.00       37        5        0       42
   17 035   104        0        0     0.11     0.00      294       10     0.01     0.00       37        5        0       42
   17 036   105        8        0     0.41     0.00      294       10     0.01     0.00       37        5        0       42
   17 037   106       13        0     0.63     0.00      294       10     0.01     0.00       37        5        0       42
   17 038   107       14        0     0.80     0.00      294       10     0.01     0.00       37        6        0       43
   17 039   108       14       31     0.92     0.00      294       10     0.01     0.00       37        6        0       43
   17 040   109        9        0     1.00     0.00      294       10     0.01     0.00       37        6        0       44
   17 041   110        0        0     1.04     0.00      294       10     0.01     0.00       37        7        0       44
   17 042   111        0        0     1.04     0.00      294       10     0.02     0.00       37        7        0       45
   17 043   112        0        0     1.03     0.00      294       10     0.02     0.00       37        8        0       45
   17 044   113        0        0     1.01     0.00      294       10     0.02     0.00       37        8        0       46
   17 045   114        0        0     0.99     0.00      294       10     0.02     0.00       37        9        0       46
   17 046   115        0        0     0.97     0.00      294       10     0.02     0.00       37        9        0       47
   17 047   116        0        0     0.96     0.00      294       10     0.02     0.00       37       10        0       47
   17 048   117        0        0     0.93     0.00      294       10     0.02     0.00       37       10        0       48
   17 049   118        0        0     0.87     0.00      294       10     0.02     0.00       37       11        0       48
   17 050   119        0        0     0.92     0.00      294       10     0.02     0.00       37       11        0       48
   17 051   120        0        0     0.89     0.00      294       10     0.02     0.00       37       11        0       49
   17 052   121       12        0     0.87     0.00      294       10     0.03     0.00       37       12        0       49
   17 053   122       45       31     0.44     0.00      294       10     0.03     0.00       37       12        0       49
   17 054   123      318      125     0.67     0.00      294       10     0.03     0.00       38       12        0       50
   17 055   124     9946     -781     0.85     0.00      304       10     0.03     0.00       35       13        0       48
   17 056   125    14814    -1375     0.89     0.00      319        8     0.03     0.00       30       13        0       43
   17 057   126    10760     -875     0.85     0.00      330        7     0.03     0.00       27       14        0       40
   17 058   127     6378     -313     0.80     0.00      336        7     0.03     0.00       26       14        0       40
   17 059   128     1108      125     0.75     0.00      337        7     0.03     0.00       26       14        0       40
   17 060   129       38       94     0.22     0.00      337        7     0.03     0.00       26       14        0       41
   17 061   130       30        0     0.22     0.00      337        7     0.03     0.00       26       15        0       41
   17 062   131       60       31     0.45     0.00      337        7     0.03     0.00       26       15        0       41
   17 063   132       38       31     0.57     0.00      337        7     0.03     0.00       27       15        0       42
   17 064   133      156       94     0.57     0.00      337        7     0.03     0.00       27       15        0       42
   17 065   134      669      219     0.45     0.00      338        8     0.03     0.00       28       16        0       43
   17 066   135     1931      -31     0.41     0.00      340        8     0.03     0.00       28       16        0       43
   17 067   136      305      156     0.42     0.00      340        8     0.03     0.00       28       16        0       44
   17 068   137      982       63     0.14     0.00      341        8     0.03     0.00       28       16        0       44
   17 069   138      307      156     0.12     0.00      342        8     0.03     0.00       29       16        0       45
   17 070   139      109       94     0.23     0.00      342        8     0.03     0.00       29       16        0       45
   17 071   140       32       63     0.30     0.00      342        8     0.03     0.00       30       16        0       46
   17 072   141       56        0     0.30     0.00      342        8     0.04     0.00       30       16        0       46
   17 073   142       63       63     0.27     0.00      342        8     0.04     0.00       30       17        0       46
   17 074   143        8        0     0.23     0.00      342        8     0.04     0.00       30       17        0       46
   17 075   144       37       31     0.21     0.00      342        8     0.04     0.00       30       17        0       47
   17 076   145      990       31     0.19     0.00      343        8     0.04     0.00       30       17        0       47
   17 077   146     5590     -281     0.17     0.00      348        8     0.04     0.00       29       17        0       46
   17 078   147     9068     -688     0.15     0.00      358        7     0.04     0.00       26       17        0       43
   17 079   148    14543    -1125     0.14     0.00      372        6     0.04     0.00       22       17        0       39
   17 080   149    17291    -1156     0.12     0.00      389        5     0.04     0.00       18       17        0       35
   17 081   150    19186    -1250     0.11     0.00      409        4     0.04     0.00       14       17        0       31
   17 082   151    15823    -1031     0.10     0.00      424        3     0.04     0.00       10       17        0       27
   17 083   152    16042    -1000     0.10     0.00      440        2     0.04     0.00        6       17        0       23
   17 084   153    11483     -625     0.09     0.00      452        1     0.04     0.00        4       17        0       21
   17 085   154     9139     -375     0.08     0.00      461        1     0.04     0.00        2       17        0       20
   17 086   155     5425     -156     0.08     0.00      466        1     0.04     0.00        2       17        0       19
   17 087   156     6514     -219     0.08     0.00      473        0     0.04     0.00        1       17        0       18
   17 088   157     6299      -63     0.07     0.00      479        0     0.04     0.00        1       17        0       18
   17 089   158     9322       63     0.07     0.00      489        0     0.04     0.00        1       17        0       19
   17 090   159    10148      125     0.07     0.00      499        0     0.04     0.00        1       17        0       19
   17 091   160    13793      563     0.06     0.00      513        1     0.04     0.00        4       18        0       21
   17 092   161    14702      906     0.06     0.00      527        2     0.04     0.00        7       18        0       24
   17 093   162    15151     1406     0.05     0.00      542        3     0.04     0.00       12       18        0       30
   17 094   163    14879     1406     0.05     0.00      557        5     0.04     0.00       17       18        0       35
   17 095   164    13407     1344     0.05     0.00      571        6     0.04     0.00       22       18        0       40
   17 096   165    11282     1094     0.04     0.00      582        7     0.04     0.00       26       18        0       44
   17 097   166     7901      688     0.04     0.00      590        8     0.04     0.00       29       18        0       46
   17 098   167     6074      594     0.04     0.00      596        8     0.04     0.00       31       18        0       49
   17 099   168     5530      625     0.04     0.00      601        9     0.04     0.00       33       18        0       51
   17 100   169     6852      844     0.04     0.00      608       10     0.04     0.00       36       18        0       54
   17 101   170     8230     1406     0.04     0.00      617       11     0.04     0.00       41       18        0       59
   17 102   171     8040     1531     0.04     0.00      625       13     0.04     0.00       47       18        0       65
   17 103   172     7622     1594     0.03     0.00      632       14     0.04     0.00       53       18        0       71
   17 104   173     7053     1625     0.03     0.00      639       16     0.04     0.00       59       18        0       77
   17 105   174     5796     1438     0.03     0.00      645       17     0.04     0.00       64       18        0       82
   17 106   175     4737     1281     0.03     0.00      650       19     0.04     0.00       69       18        0       87
   17 107   176     5133     1125     0.03     0.00      655       20     0.04     0.00       73       18        0       91
   17 108   177     5755      656     0.02     0.00      661       21     0.04     0.00       75       18        0       93
   17 109   178     3421      219     0.01     0.00      664       21     0.04     0.00       76       18        0       94
   17 110   179     1060      -31     0.02     0.00      665       21     0.04     0.00       76       18        0       94
   17 111   180        0        0     0.03     0.00      665       21     0.04     0.00       76       18        0       94
   17 112   181        0        0     0.03     0.00      665       21     0.04     0.00       76       18        0       94
   17 113   182        0        0     0.02     0.00      665       21     0.04     0.00       76       18        0       94
   17 114   183        0        0     0.03     0.00      665       21     0.04     0.00       76       18        0       94
   17 115   184        0        0     0.03     0.00      665       21     0.04     0.00       76       18        0       94
   17 116   185      835      -63     0.01     0.00      666       21     0.04     0.00       76       18        0       94
   17 117   186       49        0     0.01     0.00      666       21     0.04     0.00       76       18        0       94
   17 118   187        0        0     0.01     0.00      666       21     0.04     0.00       76       18        0       94
   17 119   188        0        0     0.01     0.00      666       21     0.04     0.00       76       18        0       94
   17 120   189        0        0     0.02     0.00      666       21     0.04     0.00       76       18        0       94
   17 121   190        0        0     0.03     0.00      666       21     0.04     0.00       76       18        0       94
   17 122   191      247       94     0.01     0.00      666       21     0.04     0.00       76       18        0       94
   17 123   192     1702     1000     0.02     0.00      668       22     0.04     0.00       80       18        0       98
   17 124   193     3482     1844     0.03     0.00      671       24     0.04     0.00       87       18        0      105
   17 125   194     4354     2094     0.03     0.00      676       26     0.04     0.00       94       18        0      112
   17 126   195     5233     2500     0.03     0.00      681       28     0.04     0.00      103       18        0      121
   17 127   196     6279     3000     0.03     0.00      687       31     0.04     0.00      114       18        0      132
   17 128   197     6846     3188     0.01     0.00      694       34     0.04     0.00      126       18        0      144
   17 129   198     6937     2906     0.01     0.00      701       37     0.04     0.00      137       18        0      155
   17 130   199     7031     2563     0.02     0.00      708       40     0.04     0.00      146       18        0      164
   17 131   200     6322     2250     0.03     0.00      714       42     0.04     0.00      154       18        0      173
   17 132   201     5806     2281     0.04     0.00      720       44     0.04     0.00      163       18        0      181
   17 133   202     6480     3063     0.04     0.00      727       47     0.04     0.00      174       18        0      192
   17 134   203     7824     3813     0.04     0.00      735       51     0.04     0.00      188       18        0      206
   17 135   204     9504     4750     0.01     0.00      744       56     0.04     0.00      206       18        0      224
   17 136   205    11454     5125     0.01     0.00      756       61     0.04     0.00      224       18        0      242
   17 137   206    12562     5125     0.03     0.00      768       66     0.04     0.00      243       18        0      261
   17 138   207    12315     5031     0.04     0.00      780       71     0.04     0.00      262       18        0      280
   17 139   208    12313     5531     0.05     0.00      793       77     0.04     0.00      282       18        0      300
   17 140   209    12203     5719     0.05     0.00      805       83     0.04     0.00      303       18        0      321
   17 141   210    11731     5469     0.05     0.00      817       88     0.04     0.00      323       18        0      341
   17 142   211    11369     5188     0.05     0.00      828       93     0.04     0.00      342       18        0      360
   17 143   212    11304     5188     0.05     0.00      839       98     0.04     0.00      361       18        0      379
   17 144   213    11104     4875     0.05     0.00      850      103     0.04     0.00      379       18        0      397
   17 145   214    20241     2250     0.84     0.00      871      106     0.04     0.00      387       19        0      406
   17 146   215    20068     2656     1.34     0.00      891      108     0.04     0.00      397       19        0      416
   17 147   216    19208     3156     1.66     0.00      910      111     0.04     0.00      409       20        0      429
   17 148   217    18076     3719     1.84     0.00      928      115     0.04     0.00      422       21        0      443
   17 149   218    17335     4156     1.90     0.00      945      119     0.05     0.00      437       22        0      459
   17 150   219    17895     4969     1.88     0.00      963      124     0.05     0.00      456       23        0      478
   17 151   220    35832     2375     1.63     0.00      999      127     0.05     0.00      464       23        0      488
   17 152   221    35985     3344     1.48     0.00     1035      130     0.05     0.00      477       24        0      501
   17 153   222    33985     4156     1.29     0.00     1069      134     0.05     0.00      492       25        0      517
   17 154   223    30396     4750     1.12     0.00     1099      139     0.05     0.00      509       25        0      535
   17 155   224    47655      313     0.91     0.00     1147      139     0.05     0.00      510       26        0      536
   17 156   225    38812     1000     0.76     0.00     1186      140     0.06     0.00      514       26        0      540
   17 157   226    37467      438     0.63     0.00     1223      141     0.06     0.00      516       26        0      542
   17 158   227    32908      594     0.29     0.00     1256      141     0.06     0.00      518       27        0      544
   17 159   228    27712      656     0.39     0.00     1284      142     0.06     0.00      520       27        0      547
   17 160   229    19944     1500     0.43     0.00     1304      143     0.06     0.00      526       27        0      553
   17 161   230    16703     2344     0.21     0.00     1321      146     0.06     0.00      534       27        0      561
   17 162   231    14605     2906     0.33     0.00     1335      149     0.06     0.00      545       27        0      572
   17 163   232    13226     3938     0.29     0.00     1348      152     0.06     0.00      560       27        0      587
   17 164   233    13689     4844     0.26     0.00     1362      157     0.06     0.00      577       27        0      605
   17 165   234    20712     3250     1.32     0.00     1383      161     0.06     0.00      589       28        0      617
   17 166   235    19164     3531     2.00     0.00     1402      164     0.06     0.00      602       29        0      631
   17 167   236    24235     2500     2.16     0.00     1426      167     0.06     0.00      611       30        0      641
   17 168   237    21278     2625     2.28     0.00     1448      169     0.07     0.00      621       31        0      652
   17 169   238    19677     2281     2.22     0.00     1467      172     0.07     0.00      629       32        0      661
   17 170   239    19252     1844     2.06     0.00     1487      173     0.07     0.00      636       33        0      669
   17 171   240    17087     2250     1.87     0.00     1504      176     0.07     0.00      644       34        0      678
   17 172   241    14265     2750     1.68     0.00     1518      178     0.07     0.00      655       35        0      689
   17 173   242    12218     3313     1.50     0.00     1530      182     0.08     0.00      667       35        0      702
   17 174   243    19029     2344     1.22     0.00     1549      184     0.08     0.00      675       36        0      711
   17 175   244    13937     3719     1.19     0.00     1563      188     0.08     0.00      689       37        0      725
   17 176   245    11153     4125     1.09     0.00     1574      192     0.08     0.00      704       37        0      741
   17 177   246    11063     3688     0.94     0.00     1585      196     0.08     0.00      718       37        0      755
   17 178   247    17326     2375     0.76     0.00     1603      198     0.08     0.00      726       38        0      764
   17 179   248    28333     -188     0.65     0.00     1631      198     0.08     0.00      726       38        0      764
   17 180   249    49436    -4656     0.34     0.00     1680      193     0.08     0.00      709       38        0      747
   17 181   250    50905    -5250     0.49     0.00     1731      188     0.08     0.00      689       39        0      728
   17 182   251    48142    -4531     0.61     0.00     1779      183     0.08     0.00      673       39        0      711
   17 183   252    36973    -2438     0.58     0.00     1816      181     0.08     0.00      664       39        0      703
   17 184   253    28666    -1156     0.56     0.00     1845      180     0.08     0.00      659       39        0      699
   17 185   254    24081     -438     0.54     0.00     1869      179     0.08     0.00      658       40        0      697
   17 186   255    18398      688     0.52     0.00     1888      180     0.09     0.00      660       40        0      700
   17 187   256    10528     2406     0.50     0.00     1898      182     0.09     0.00      669       40        0      709
   17 188   257     5943     3656     0.47     0.00     1904      186     0.09     0.00      683       40        0      723
   17 189   258     5993     4000     0.45     0.00     1910      190     0.09     0.00      697       41        0      738
   17 190   259     6019     4344     0.43     0.00     1916      194     0.09     0.00      713       41        0      754
   17 191   260    53524    -4969     0.14     0.00     1970      189     0.09     0.00      695       41        0      736
   17 192   261    55179    -4781     0.20     0.00     2025      185     0.09     0.00      677       41        0      718
   17 193   262    52349    -4281     0.28     0.00     2077      180     0.09     0.00      662       41        0      703
   17 194   263    49022    -3656     0.30     0.00     2126      177     0.09     0.00      648       41        0      689
   17 195   264    40653    -2344     0.43     0.00     2167      174     0.09     0.00      640       41        0      681
   17 196   265    36640    -2000     0.21     0.00     2203      172     0.09     0.00      632       41        0      674
   17 197   266    32768    -1563     0.42     0.00     2236      171     0.09     0.00      627       42        0      668
   17 198   267    28881     -906     0.44     0.00     2265      170     0.09     0.00      623       42        0      665
   17 199   268    24089       63     0.43     0.00     2289      170     0.09     0.00      624       42        0      666
   17 200   269    21606      969     0.43     0.00     2311      171     0.09     0.00      627       42        0      669
   17 201   270    18876     1969     0.44     0.00     2330      173     0.09     0.00      634       42        0      677
   17 202   271    15091     2750     0.44     0.00     2345      176     0.09     0.00      644       43        0      687
   17 203   272    13366     3281     0.44     0.00     2358      179     0.09     0.00      656       43        0      699
   17 204   273    13724     3469     0.40     0.00     2372      182     0.09     0.00      669       43        0      712
   17 205   274     9710     3938     0.44     0.00     2381      186     0.09     0.00      684       43        0      727
   17 206   275    11093     3219     0.40     0.00     2393      190     0.09     0.00      695       43        0      739
   17 207   276    30923     -844     0.15     0.00     2423      189     0.09     0.00      692       44        0      736
   17 208   277    23798     1250     0.13     0.00     2447      190     0.09     0.00      697       44        0      741
   17 209   278    21725     1250     0.13     0.00     2469      191     0.09     0.00      702       44        0      745
   17 210   279    23972      906     0.30     0.00     2493      192     0.09     0.00      705       44        0      749
   17 211   280    27322      875     0.40     0.00     2520      193     0.09     0.00      708       44        0      752
   17 212   281    30933     1094     0.38     0.00     2551      194     0.09     0.00      712       44        0      756
   17 213   282    32514     1906     0.38     0.00     2584      196     0.09     0.00      719       44        0      763
   17 214   283    38052     1656     0.22     0.00     2622      198     0.09     0.00      725       44        0      770
   17 215   284    39421     2000     0.42     0.00     2661      200     0.10     0.00      733       45        0      777
   17 216   285    40495     2125     0.22     0.00     2702      202     0.10     0.00      740       45        0      785
   17 217   286    40038     2188     0.47     0.00     2742      204     0.10     0.00      748       45        0      793
   17 218   287    36671     3031     0.56     0.00     2778      207     0.10     0.00      759       45        0      805
   17 219   288    31812     3188     0.59     0.00     2810      210     0.10     0.00      771       45        0      817

*DSSAT Cropping System Model Ver. 4.8.5.000 -release  FEB 02, 2026 11:47:14

*RUN   3        : 3                         WHAPS048 TUDU1701    3
 MODEL          : WHAPS048 - Wheat
 EXPERIMENT     : TUDU1701 WH
 DATA PATH      :
 TREATMENT  3   : 3                         WHAPS048
  
!               |---------- Daily (g/ha) ----------|------- Cumulative (kg/ha) --------|---- Cum CO2-equiv kg[CO2eq]/ha ---|
!               Soil CO2  Net CO2      N2O      CH4 Soil CO2  Net CO2      N2O      CH4  Net CO2      N2O      CH4    Total
!                g[C]/ha  g[C]/ha  g[N]/ha  g[C]/ha kg[C]/ha kg[C]/ha kg[N]/ha kg[C]/ha    CO2eq    CO2eq    CO2eq    CO2eq
@YEAR DOY   DAS   CO2GED   CO2END   N2OGED   CH4GED    CO2EC   CO2ENC    N2OEC    CH4EC    CCEQC    NCEQC    MCEQC    TCEQC
   16 298     1    39999    -2500     0.01     0.00       40       -3     0.00     0.00       -9        0        0       -9
   16 299     2    40166    -2563     0.00     0.00       80       -5     0.00     0.00      -19        0        0      -19
   16 300     3    39620    -2594     0.01     0.00      120       -8     0.00     0.00      -28        0        0      -28
   16 301     4    34688    -2188     0.01     0.00      154      -10     0.00     0.00      -36        0        0      -36
   16 302     5    27567    -1438     0.01     0.00      182      -11     0.00     0.00      -41        0        0      -41
   16 303     6    19262     -500     0.01     0.00      201      -12     0.00     0.00      -43        0        0      -43
   16 304     7    12876      188     0.01     0.00      214      -12     0.00     0.00      -43        0        0      -43
   16 305     8     7175      656     0.02     0.00      221      -11     0.00     0.00      -40        0        0      -40
   16 306     9     4494      906     0.02     0.00      226      -10     0.00     0.00      -37        0        0      -37
   16 307    10     2217     1031     0.02     0.00      228       -9     0.00     0.00      -33        0        0      -33
   16 308    11     2246     1031     0.02     0.00      230       -8     0.00     0.00      -29        0        0      -29
   16 309    12     1664      781     0.03     0.00      232       -7     0.00     0.00      -26        0        0      -26
   16 310    13     1298      719     0.03     0.00      233       -6     0.00     0.00      -24        0        0      -24
   16 311    14     1569      750     0.02     0.00      235       -6     0.00     0.00      -21        0        0      -21
   16 312    15     1721      875     0.01     0.00      237       -5     0.00     0.00      -18        0        0      -18
   16 313    16     1110      531     0.02     0.00      238       -4     0.00     0.00      -16        0        0      -16
   16 314    17      881      469     0.03     0.00      239       -4     0.00     0.00      -14        0        0      -14
   16 315    18      819      438     0.03     0.00      239       -3     0.00     0.00      -13        0        0      -12
   16 316    19      606      344     0.01     0.00      240       -3     0.00     0.00      -11        0        0      -11
   16 317    20      537      344     0.01     0.00      241       -3     0.00     0.00      -10        0        0      -10
   16 318    21      541      281     0.03     0.00      241       -2     0.00     0.00       -9        0        0       -9
   16 319    22      449      250     0.05     0.00      242       -2     0.00     0.00       -8        0        0       -8
   16 320    23      331      188     0.06     0.00      242       -2     0.00     0.00       -7        0        0       -7
   16 321    24      247      156     0.03     0.00      242       -2     0.00     0.00       -7        0        0       -7
   16 322    25      404      219     0.02     0.00      242       -2     0.00     0.00       -6        0        0       -6
   16 323    26      774      469     0.04     0.00      243       -1     0.00     0.00       -4        0        0       -4
   16 324    27     1692      781     0.02     0.00      245        0     0.00     0.00       -1        0        0       -1
   16 325    28     3244      969     0.02     0.00      248        1     0.00     0.00        2        0        0        2
   16 326    29     5625      781     0.05     0.00      254        1     0.00     0.00        5        0        0        5
   16 327    30     6107      688     0.07     0.00      260        2     0.00     0.00        8        0        0        8
   16 328    31     6325      656     0.08     0.00      266        3     0.00     0.00       10        0        0       10
   16 329    32     4005      875     0.09     0.00      270        4     0.00     0.00       13        0        0       14
   16 330    33     5409      719     0.09     0.00      276        4     0.00     0.00       16        0        0       16
   16 331    34     6151      781     0.09     0.00      282        5     0.00     0.00       19        0        0       19
   16 332    35     4796      813     0.09     0.00      287        6     0.00     0.00       22        1        0       22
   16 333    36     1893      938     0.09     0.00      289        7     0.00     0.00       25        1        0       26
   16 334    37      976      531     0.10     0.00      289        7     0.00     0.00       27        1        0       28
   16 335    38      396      281     0.10     0.00      290        8     0.00     0.00       28        1        0       29
   16 336    39      119       63     0.10     0.00      290        8     0.00     0.00       28        1        0       29
   16 337    40       55       63     0.10     0.00      290        8     0.00     0.00       29        1        0       29
   16 338    41       44       31     0.10     0.00      290        8     0.00     0.00       29        1        0       29
   16 339    42       38        0     0.11     0.00      290        8     0.00     0.00       29        1        0       30
   16 340    43       29       31     0.11     0.00      290        8     0.00     0.00       29        1        0       30
   16 341    44       34       31     0.11     0.00      290        8     0.00     0.00       29        1        0       30
   16 342    45        3        0     0.12     0.00      290        8     0.00     0.00       29        1        0       30
   16 343    46        0        0     0.12     0.00      290        8     0.00     0.00       29        1        0       30
   16 344    47        0        0     0.12     0.00      290        8     0.00     0.00       29        1        0       30
   16 345    48        6        0     0.12     0.00      290        8     0.00     0.00       29        1        0       30
   16 346    49       40        0     0.12     0.00      290        8     0.00     0.00       29        1        0       30
   16 347    50       79       63     0.13     0.00      290        8     0.00     0.00       29        1        0       30
[...]
   17 059   128     1014      188     0.06     0.00      322       11     0.01     0.00       40        6        0       45
   17 060   129       38       94     0.02     0.00      322       11     0.01     0.00       40        6        0       46
   17 061   130       30        0     0.02     0.00      322       11     0.01     0.00       40        6        0       46
   17 062   131       60       31     0.04     0.00      322       11     0.01     0.00       40        6        0       46
   17 063   132       38       31     0.05     0.00      322       11     0.01     0.00       40        6        0       46
   17 064   133      156       94     0.06     0.00      322       11     0.01     0.00       41        6        0       46
   17 065   134      610      219     0.05     0.00      323       11     0.01     0.00       42        6        0       47
   17 066   135     1649       31     0.04     0.00      325       11     0.01     0.00       42        6        0       47
   17 067   136      305      188     0.05     0.00      325       12     0.01     0.00       42        6        0       48
   17 068   137      876       94     0.02     0.00      326       12     0.01     0.00       43        6        0       48
   17 069   138      303      156     0.02     0.00      326       12     0.01     0.00       43        6        0       49
   17 070   139      109       63     0.03     0.00      326       12     0.01     0.00       43        6        0       49
   17 071   140       32       63     0.04     0.00      326       12     0.01     0.00       44        6        0       50
   17 072   141       56        0     0.05     0.00      326       12     0.01     0.00       44        6        0       50
   17 073   142       63       31     0.05     0.00      326       12     0.01     0.00       44        6        0       50
   17 074   143        8        0     0.04     0.00      326       12     0.01     0.00       44        6        0       50
   17 075   144       37       31     0.04     0.00      326       12     0.01     0.00       44        6        0       50
   17 076   145      944       94     0.04     0.00      327       12     0.01     0.00       44        6        0       50
   17 077   146     4916      -94     0.04     0.00      332       12     0.01     0.00       44        6        0       50
   17 078   147     6610      -63     0.04     0.00      339       12     0.01     0.00       44        6        0       50
   17 079   148     6802      781     0.04     0.00      346       13     0.01     0.00       47        6        0       53
   17 080   149     7449     1313     0.04     0.00      353       14     0.01     0.00       51        6        0       57
   17 081   150     7563     1625     0.04     0.00      361       16     0.01     0.00       57        6        0       63
   17 082   151     6530     1281     0.04     0.00      367       17     0.01     0.00       62        6        0       68
   17 083   152     6383     1469     0.04     0.00      374       18     0.01     0.00       67        6        0       74
   17 084   153     5232      906     0.04     0.00      379       19     0.01     0.00       71        6        0       77
   17 085   154     4521      813     0.03     0.00      383       20     0.01     0.00       74        6        0       80
   17 086   155     3404      344     0.03     0.00      387       20     0.01     0.00       75        6        0       81
   17 087   156     3510      594     0.03     0.00      390       21     0.01     0.00       77        6        0       83
   17 088   157     3425      625     0.03     0.00      394       22     0.01     0.00       79        6        0       86
   17 089   158     4473     1313     0.03     0.00      398       23     0.01     0.00       84        6        0       90
   17 090   159     5038     1438     0.03     0.00      403       24     0.01     0.00       90        6        0       96
   17 091   160     6799     2438     0.03     0.00      410       27     0.01     0.00       99        6        0      105
   17 092   161     8081     2844     0.03     0.00      418       30     0.01     0.00      109        6        0      115
   17 093   162     9207     3250     0.03     0.00      427       33     0.01     0.00      121        6        0      127
   17 094   163     9514     3188     0.03     0.00      437       36     0.01     0.00      133        6        0      139
   17 095   164     9304     2844     0.03     0.00      446       39     0.01     0.00      143        6        0      149
   17 096   165     8326     2188     0.03     0.00      454       41     0.01     0.00      151        6        0      157
   17 097   166     6665     1250     0.03     0.00      461       42     0.01     0.00      156        6        0      162
   17 098   167     5712      906     0.03     0.00      467       43     0.01     0.00      159        6        0      165
   17 099   168     5324      938     0.03     0.00      472       44     0.01     0.00      162        6        0      169
   17 100   169     5985     1469     0.03     0.00      478       46     0.01     0.00      168        6        0      174
   17 101   170     7090     2156     0.03     0.00      485       48     0.01     0.00      176        6        0      182
   17 102   171     7536     2344     0.03     0.00      493       50     0.01     0.00      184        6        0      191
   17 103   172     7485     2344     0.03     0.00      500       53     0.01     0.00      193        6        0      199
   17 104   173     7238     2313     0.03     0.00      507       55     0.01     0.00      201        6        0      208
   17 105   174     6408     1906     0.03     0.00      514       57     0.01     0.00      208        6        0      215
   17 106   175     5654     1594     0.03     0.00      520       58     0.01     0.00      214        6        0      221
   17 107   176     6019     1531     0.03     0.00      526       60     0.01     0.00      220        6        0      226
   17 108   177     5620     1125     0.03     0.00      531       61     0.01     0.00      224        6        0      230
   17 109   178     3953      313     0.02     0.00      535       61     0.01     0.00      225        6        0      232
   17 110   179     1552     -188     0.02     0.00      537       61     0.01     0.00      224        6        0      231
   17 111   180        0        0     0.03     0.00      537       61     0.01     0.00      224        6        0      231
   17 112   181        0        0     0.03     0.00      537       61     0.01     0.00      224        6        0      231
   17 113   182        0        0     0.02     0.00      537       61     0.01     0.00      224        7        0      231
   17 114   183        0        0     0.03     0.00      537       61     0.01     0.00      224        7        0      231
   17 115   184        0        0     0.04     0.00      537       61     0.01     0.00      224        7        0      231
   17 116   185     1040      -94     0.01     0.00      538       61     0.01     0.00      224        7        0      231
   17 117   186       64      -31     0.01     0.00      538       61     0.01     0.00      224        7        0      231
   17 118   187        0        0     0.01     0.00      538       61     0.01     0.00      224        7        0      231
   17 119   188        0        0     0.01     0.00      538       61     0.01     0.00      224        7        0      231
   17 120   189        0        0     0.02     0.00      538       61     0.01     0.00      224        7        0      231
   17 121   190        0        0     0.03     0.00      538       61     0.01     0.00      224        7        0      231
   17 122   191      750        0     0.01     0.00      539       61     0.01     0.00      224        7        0      231
   17 123   192     2082      938     0.02     0.00      541       62     0.01     0.00      227        7        0      234
   17 124   193     3793     1781     0.03     0.00      544       64     0.01     0.00      234        7        0      241
   17 125   194     4652     2000     0.04     0.00      549       66     0.01     0.00      241        7        0      248
   17 126   195     5636     2375     0.04     0.00      555       68     0.01     0.00      250        7        0      257
   17 127   196     6826     2844     0.04     0.00      561       71     0.01     0.00      260        7        0      267
   17 128   197     7537     3063     0.01     0.00      569       74     0.01     0.00      272        7        0      278
   17 129   198     7515     2750     0.01     0.00      577       77     0.01     0.00      282        7        0      288
   17 130   199     7445     2469     0.03     0.00      584       79     0.01     0.00      291        7        0      298
   17 131   200     6894     2063     0.04     0.00      591       81     0.01     0.00      298        7        0      305
   17 132   201     6618     2094     0.05     0.00      598       83     0.01     0.00      306        7        0      313
   17 133   202     7440     2844     0.05     0.00      605       86     0.01     0.00      317        7        0      323
   17 134   203     8829     3594     0.05     0.00      614       90     0.01     0.00      330        7        0      337
   17 135   204    10402     4469     0.02     0.00      624       94     0.01     0.00      346        7        0      353
   17 136   205    12060     5000     0.02     0.00      636       99     0.01     0.00      364        7        0      371
   17 137   206    13063     4969     0.04     0.00      649      104     0.01     0.00      383        7        0      390
   17 138   207    13167     4844     0.05     0.00      662      109     0.01     0.00      400        7        0      407
   17 139   208    13628     5188     0.06     0.00      676      114     0.01     0.00      420        7        0      426
   17 140   209    13894     5313     0.06     0.00      690      120     0.01     0.00      439        7        0      446
   17 141   210    13553     5000     0.06     0.00      704      125     0.01     0.00      457        7        0      464
   17 142   211    13229     4719     0.06     0.00      717      129     0.01     0.00      475        7        0      482
   17 143   212    13144     4563     0.07     0.00      730      134     0.01     0.00      491        7        0      498
   17 144   213    12867     4375     0.07     0.00      743      138     0.02     0.00      507        7        0      515
   17 145   214    12433     4031     0.07     0.00      755      142     0.02     0.00      522        7        0      529
   17 146   215    12818     4281     0.08     0.00      768      147     0.02     0.00      538        7        0      545
   17 147   216    13221     4594     0.08     0.00      781      151     0.02     0.00      555        7        0      562
   17 148   217    13559     4688     0.08     0.00      795      156     0.02     0.00      572        7        0      579
   17 149   218    14003     4938     0.08     0.00      809      161     0.02     0.00      590        7        0      597
   17 150   219    15204     5656     0.08     0.00      824      166     0.02     0.00      611        7        0      618
   17 151   220    17415     7125     0.08     0.00      841      174     0.02     0.00      637        7        0      644
   17 152   221    19090     7719     0.08     0.00      861      181     0.02     0.00      665        7        0      673
   17 153   222    20260     7875     0.08     0.00      881      189     0.02     0.00      694        7        0      702
   17 154   223    20922     7563     0.09     0.00      902      197     0.02     0.00      722        7        0      729
   17 155   224    21630     7656     0.09     0.00      923      204     0.02     0.00      750        7        0      758
   17 156   225    20420     6594     0.09     0.00      944      211     0.02     0.00      774        7        0      782
   17 157   226    19774     5875     0.10     0.00      964      217     0.02     0.00      796        8        0      803
   17 158   227    18503     5188     0.05     0.00      982      222     0.02     0.00      815        8        0      823
   17 159   228    16921     4031     0.09     0.00      999      226     0.02     0.00      830        8        0      837
   17 160   229    15043     3406     0.12     0.00     1014      230     0.02     0.00      842        8        0      850
   17 161   230    14341     3813     0.06     0.00     1028      233     0.02     0.00      856        8        0      864
   17 162   231    13990     4000     0.11     0.00     1042      237     0.02     0.00      871        8        0      879
   17 163   232    14445     4875     0.13     0.00     1057      242     0.02     0.00      889        8        0      897
   17 164   233    15787     5906     0.13     0.00     1073      248     0.02     0.00      911        8        0      918
   17 165   234    16823     6344     0.13     0.00     1089      254     0.02     0.00      934        8        0      942
   17 166   235    17577     6281     0.13     0.00     1107      261     0.02     0.00      957        8        0      965
   17 167   236    18741     6594     0.13     0.00     1126      267     0.02     0.00      981        8        0      989
   17 168   237    19015     6125     0.13     0.00     1145      273     0.02     0.00     1004        8        0     1012
   17 169   238    19013     5313     0.14     0.00     1164      279     0.02     0.00     1023        8        0     1031
   17 170   239    19107     4594     0.14     0.00     1183      283     0.02     0.00     1040        8        0     1048
   17 171   240    19740     4500     0.15     0.00     1203      288     0.02     0.00     1056        8        0     1065
   17 172   241    20470     4281     0.15     0.00     1223      292     0.02     0.00     1072        8        0     1080
   17 173   242    21442     4375     0.16     0.00     1244      297     0.02     0.00     1088        8        0     1097
   17 174   243    23797     5031     0.15     0.00     1268      302     0.02     0.00     1107        9        0     1115
   17 175   244    25739     5031     0.15     0.00     1294      307     0.02     0.00     1125        9        0     1134
   17 176   245    27372     4469     0.17     0.00     1321      311     0.02     0.00     1141        9        0     1150
   17 177   246    27835     3625     0.17     0.00     1349      315     0.02     0.00     1155        9        0     1164
   17 178   247    27520     3781     0.17     0.00     1377      318     0.02     0.00     1169        9        0     1177
   17 179   248    32616     2438     0.09     0.00     1409      321     0.02     0.00     1178        9        0     1186
   17 180   249    35189     2125     0.08     0.00     1445      323     0.02     0.00     1185        9        0     1194
   17 181   250    35831     1625     0.12     0.00     1480      325     0.02     0.00     1191        9        0     1200
   17 182   251    36784     1531     0.20     0.00     1517      326     0.02     0.00     1197        9        0     1206
   17 183   252    36366      906     0.23     0.00     1554      327     0.02     0.00     1200        9        0     1209
   17 184   253    36692       31     0.23     0.00     1590      327     0.02     0.00     1200        9        0     1210
   17 185   254    38401     -781     0.23     0.00     1629      326     0.02     0.00     1198        9        0     1207
   17 186   255    38282     -813     0.24     0.00     1667      326     0.02     0.00     1195        9        0     1204
   17 187   256    38918     -781     0.25     0.00     1706      325     0.02     0.00     1192       10        0     1201
   17 188   257    39673     -500     0.26     0.00     1745      324     0.02     0.00     1190       10        0     1200
   17 189   258    39555      188     0.27     0.00     1785      324     0.02     0.00     1191       10        0     1200
   17 190   259    39867      750     0.28     0.00     1825      325     0.02     0.00     1193       10        0     1203
   17 191   260    47348      -63     0.09     0.00     1872      325     0.02     0.00     1193       10        0     1203
   17 192   261    49975     -188     0.10     0.00     1922      325     0.02     0.00     1192       10        0     1202
   17 193   262    52572    -1063     0.14     0.00     1975      324     0.02     0.00     1189       10        0     1199
   17 194   263    51264    -1188     0.16     0.00     2026      323     0.02     0.00     1184       10        0     1194
   17 195   264    49294    -1594     0.33     0.00     2075      321     0.02     0.00     1178       10        0     1189
   17 196   265    39342      -31     0.14     0.00     2115      321     0.02     0.00     1178       10        0     1189
   17 197   266    38675     -406     0.31     0.00     2153      321     0.02     0.00     1177       11        0     1187
   17 198   267    36869     -469     0.43     0.00     2190      320     0.02     0.00     1175       11        0     1186
   17 199   268    33646      219     0.43     0.00     2224      320     0.02     0.00     1176       11        0     1187
   17 200   269    34341      750     0.44     0.00     2258      321     0.02     0.00     1179       11        0     1190
   17 201   270    36724     1344     0.45     0.00     2295      322     0.02     0.00     1183       11        0     1195
   17 202   271    36950     2031     0.47     0.00     2332      325     0.02     0.00     1191       12        0     1203
   17 203   272    37069     2531     0.49     0.00     2369      327     0.03     0.00     1200       12        0     1212
   17 204   273    41902     2125     0.48     0.00     2411      329     0.03     0.00     1208       12        0     1220
   17 205   274    38519     2625     0.50     0.00     2449      332     0.03     0.00     1218       12        0     1230
   17 206   275    38513     1469     0.51     0.00     2488      333     0.03     0.00     1223       13        0     1236
   17 207   276    31203     2250     0.17     0.00     2519      336     0.03     0.00     1231       13        0     1244
   17 208   277    26916     2656     0.16     0.00     2546      338     0.03     0.00     1241       13        0     1254
   17 209   278    24451     2406     0.17     0.00     2570      341     0.03     0.00     1250       13        0     1263
   17 210   279    26977     1938     0.40     0.00     2597      343     0.03     0.00     1257       13        0     1270
   17 211   280    30636     2094     0.56     0.00     2628      345     0.03     0.00     1265       13        0     1278
   17 212   281    35336     2406     0.58     0.00     2663      347     0.03     0.00     1273       14        0     1287
   17 213   282    37654     3438     0.61     0.00     2701      350     0.03     0.00     1286       14        0     1300
   17 214   283    42966     3563     0.35     0.00     2744      354     0.03     0.00     1299       14        0     1313
   17 215   284    45840     3875     0.73     0.00     2790      358     0.03     0.00     1313       14        0     1328
   17 216   285    44728     4656     0.35     0.00     2835      363     0.03     0.00     1330       14        0     1345
   17 217   286    45411     4438     0.76     0.00     2880      367     0.03     0.00     1347       15        0     1362
   17 218   287    42533     5094     0.93     0.00     2923      372     0.03     0.00     1365       15        0     1381
   17 219   288    36659     5313     0.95     0.00     2959      377     0.03     0.00     1385       16        0     1401
