*MANAGEMENT OPERATIONS DAILY OUTPUT FILE

*DSSAT Cropping System Model Ver. 4.8.5.000 -release  FEB 02, 2026 11:47:14

*RUN   1        : 1                         WHAPS048 TUDU1701    1
 MODEL          : WHAPS048 - Wheat
 EXPERIMENT     : TUDU1701 WH
 DATA PATH      :
 TREATMENT  1   : 1                         WHAPS048
  

@YEAR DOY   DAS   DAP  TL#C  TLDD DLYR3   TLBD  NAPC  NICM  R#AC RESNC RESPC
   16 298     1     0     1     4    20  1.331     0     0     0     0     0
   16 299     2     1     1     0    20  1.331     0     0     0     0     0
   16 300     3     2     1     0    20  1.331     0     0     0     0     0
   16 301     4     3     1     0    20  1.331     0     0     0     0     0
   16 302     5     4     1     0    20  1.331     0     0     0     0     0
   16 303     6     5     1     0    20  1.331     0     0     0     0     0
   16 304     7     6     1     0    20  1.331     0     0     0     0     0
   16 305     8     7     1     0    20  1.331     0     0     0     0     0
   16 306     9     8     1     0    20  1.331     0     0     0     0     0
   16 307    10     9     1     0    20  1.331     0     0     0     0     0
   16 308    11    10     1     0    20  1.331     0     0     0     0     0
   16 309    12    11     1     0    20  1.331     0     0     0     0     0
   16 310    13    12     1     0    20  1.327     0     0     0     0     0
   16 311    14    13     1     0    20  1.324     0     0     0     0     0
   16 312    15    14     1     0    20  1.324     0     0     0     0     0
   16 313    16    15     1     0    20  1.324     0     0     0     0     0
   16 314    17    16     1     0    20  1.324     0     0     0     0     0
   16 315    18    17     1     0    20  1.322     0     0     0     0     0
   16 316    19    18     1     0    20  1.321     0     0     0     0     0
   16 317    20    19     1     0    20  1.321     0     0     0     0     0
   16 318    21    20     1     0    20  1.321     0     0     0     0     0
   16 319    22    21     1     0    20  1.321     0     0     0     0     0
   16 320    23    22     1     0    20  1.320     0     0     0     0     0
   16 321    24    23     1     0    20  1.318     0     0     0     0     0
   16 322    25    24     1     0    20  1.318     0     0     0     0     0
   16 323    26    25     1     0    20  1.317     0     0     0     0     0
   16 324    27    26     1     0    20  1.316     0     0     0     0     0
   16 325    28    27     1     0    20  1.316     0     0     0     0     0
   16 326    29    28     1     0    20  1.316     0     0     0     0     0
   16 327    30    29     1     0    20  1.316     0     0     0     0     0
   16 328    31    30     1     0    20  1.316     0     0     0     0     0
   16 329    32    31     1     0    20  1.316     0     0     0     0     0
   16 330    33    32     1     0    20  1.316     0     0     0     0     0
   16 331    34    33     1     0    20  1.316     0     0     0     0     0
   16 332    35    34     1     0    20  1.316     0     0     0     0     0
   16 333    36    35     1     0    20  1.316     0     0     0     0     0
   16 334    37    36     1     0    20  1.316     0     0     0     0     0
   16 335    38    37     1     0    20  1.316     0     0     0     0     0
   16 336    39    38     1     0    20  1.316     0     0     0     0     0
   16 337    40    39     1     0    20  1.316     0     0     0     0     0
   16 338    41    40     1     0    20  1.316     0     0     0     0     0
   16 339    42    41     1     0    20  1.316     0     0     0     0     0
   16 340    43    42     1     0    20  1.316     0     0     0     0     0
   16 341    44    43     1     0    20  1.316     0     0     0     0     0
   16 342    45    44     1     0    20  1.316     0     0     0     0     0
   16 343    46    45     1     0    20  1.316     0     0     0     0     0
   16 344    47    46     1     0    20  1.316     0     0     0     0     0
   16 345    48    47     1     0    20  1.316     0     0     0     0     0
   16 346    49    48     1     0    20  1.316     0     0     0     0     0
   16 347    50    49     1     0    20  1.316     0     0     0     0     0
   16 348    51    50     1     0    20  1.316     0     0     0     0     0
   16 349    52    51     1     0    20  1.316     0     0     0     0     0
   16 350    53    52     1     0    20  1.316     0     0     0     0     0
   16 351    54    53     1     0    20  1.316     0     0     0     0     0
   16 352    55    54     1     0    20  1.316     0     0     0     0     0
   16 353    56    55     1     0    20  1.316     0     0     0     0     0
   16 354    57    56     1     0    20  1.316     0     0     0     0     0
   16 355    58    57     1     0    20  1.316     0     0     0     0     0
   16 356    59    58     1     0    20  1.316     0     0     0     0     0
   16 357    60    59     1     0    20  1.316     0     0     0     0     0
   16 358    61    60     1     0    20  1.316     0     0     0     0     0
   16 359    62    61     1     0    20  1.316     0     0     0     0     0
   16 360    63    62     1     0    20  1.316     0     0     0     0     0
   16 361    64    63     1     0    20  1.315     0     0     0     0     0
   16 362    65    64     1     0    20  1.315     0     0     0     0     0
   16 363    66    65     1     0    20  1.315     0     0     0     0     0
   16 364    67    66     1     0    20  1.315     0     0     0     0     0
   16 365    68    67     1     0    20  1.315     0     0     0     0     0
   16 366    69    68     1     0    20  1.315     0     0     0     0     0
   17 001    70    69     1     0    20  1.315     0     0     0     0     0
   17 002    71    70     1     0    20  1.315     0     0     0     0     0
   17 003    72    71     1     0    20  1.315     0     0     0     0     0
   17 004    73    72     1     0    20  1.315     0     0     0     0     0
   17 005    74    73     1     0    20  1.315     0     0     0     0     0
   17 006    75    74     1     0    20  1.315     0     0     0     0     0
   17 007    76    75     1     0    20  1.313     0     0     0     0     0
   17 008    77    76     1     0    20  1.313     0     0     0     0     0
   17 009    78    77     1     0    20  1.313     0     0     0     0     0
   17 010    79    78     1     0    20  1.313     0     0     0     0     0
   17 011    80    79     1     0    20  1.313     0     0     0     0     0
   17 012    81    80     1     0    20  1.312     0     0     0     0     0
   17 013    82    81     1     0    20  1.312     0     0     0     0     0
   17 014    83    82     1     0    20  1.312     0     0     0     0     0
   17 015    84    83     1     0    20  1.312     0     0     0     0     0
   17 016    85    84     1     0    20  1.312     0     0     0     0     0
   17 017    86    85     1     0    20  1.312     0     0     0     0     0
   17 018    87    86     1     0    20  1.312     0     0     0     0     0
   17 019    88    87     1     0    20  1.312     0     0     0     0     0
   17 020    89    88     1     0    20  1.312     0     0     0     0     0
   17 021    90    89     1     0    20  1.312     0     0     0     0     0
   17 022    91    90     1     0    20  1.311     0     0     0     0     0
   17 023    92    91     1     0    20  1.311     0     0     0     0     0
   17 024    93    92     1     0    20  1.311     0     0     0     0     0
   17 025    94    93     1     0    20  1.311     0     0     0     0     0
   17 026    95    94     1     0    20  1.311     0     0     0     0     0
   17 027    96    95     1     0    20  1.311     0     0     0     0     0
   17 028    97    96     1     0    20  1.311     0     0     0     0     0
   17 029    98    97     1     0    20  1.310     0     0     0     0     0
   17 030    99    98     1     0    20  1.310     0     0     0     0     0
   17 031   100    99     1     0    20  1.310     0     0     0     0     0
   17 032   101   100     1     0    20  1.310     0     0     0     0     0
   17 033   102   101     1     0    20  1.310     0     0     0     0     0
   17 034   103   102     1     0    20  1.310     0     0     0     0     0
   17 035   104   103     1     0    20  1.310     1    40     0     0     0
   17 036   105   104     1     0    20  1.310     1    40     0     0     0
   17 037   106   105     1     0    20  1.310     1    40     0     0     0
   17 038   107   106     1     0    20  1.310     1    40     0     0     0
   17 039   108   107     1     0    20  1.310     1    40     0     0     0
   17 040   109   108     1     0    20  1.310     1    40     0     0     0
   17 041   110   109     1     0    20  1.310     1    40     0     0     0
   17 042   111   110     1     0    20  1.310     1    40     0     0     0
   17 043   112   111     1     0    20  1.310     1    40     0     0     0
   17 044   113   112     1     0    20  1.310     1    40     0     0     0
   17 045   114   113     1     0    20  1.310     1    40     0     0     0
   17 046   115   114     1     0    20  1.310     1    40     0     0     0
   17 047   116   115     1     0    20  1.310     1    40     0     0     0
   17 048   117   116     1     0    20  1.308     1    40     0     0     0
   17 049   118   117     1     0    20  1.308     1    40     0     0     0
   17 050   119   118     1     0    20  1.308     1    40     0     0     0
   17 051   120   119     1     0    20  1.308     1    40     0     0     0
   17 052   121   120     1     0    20  1.308     1    40     0     0     0
   17 053   122   121     1     0    20  1.308     1    40     0     0     0
   17 054   123   122     1     0    20  1.308     1    40     0     0     0
   17 055   124   123     1     0    20  1.308     1    40     0     0     0
   17 056   125   124     1     0    20  1.308     1    40     0     0     0
   17 057   126   125     1     0    20  1.308     1    40     0     0     0
   17 058   127   126     1     0    20  1.308     1    40     0     0     0
   17 059   128   127     1     0    20  1.308     1    40     0     0     0
   17 060   129   128     1     0    20  1.308     1    40     0     0     0
   17 061   130   129     1     0    20  1.308     1    40     0     0     0
   17 062   131   130     1     0    20  1.308     1    40     0     0     0
   17 063   132   131     1     0    20  1.308     1    40     0     0     0
   17 064   133   132     1     0    20  1.308     1    40     0     0     0
   17 065   134   133     1     0    20  1.308     1    40     0     0     0
   17 066   135   134     1     0    20  1.308     1    40     0     0     0
   17 067   136   135     1     0    20  1.308     1    40     0     0     0
   17 068   137   136     1     0    20  1.308     1    40     0     0     0
   17 069   138   137     1     0    20  1.308     1    40     0     0     0
   17 070   139   138     1     0    20  1.308     1    40     0     0     0
   17 071   140   139     1     0    20  1.308     1    40     0     0     0
   17 072   141   140     1     0    20  1.308     1    40     0     0     0
   17 073   142   141     1     0    20  1.308     1    40     0     0     0
   17 074   143   142     1     0    20  1.308     1    40     0     0     0
   17 075   144   143     1     0    20  1.308     1    40     0     0     0
   17 076   145   144     1     0    20  1.308     1    40     0     0     0
   17 077   146   145     1     0    20  1.308     1    40     0     0     0
   17 078   147   146     1     0    20  1.308     1    40     0     0     0
   17 079   148   147     1     0    20  1.308     1    40     0     0     0
   17 080   149   148     1     0    20  1.308     1    40     0     0     0
   17 081   150   149     1     0    20  1.308     1    40     0     0     0
   17 082   151   150     1     0    20  1.308     1    40     0     0     0
   17 083   152   151     1     0    20  1.308     1    40     0     0     0
   17 084   153   152     1     0    20  1.308     1    40     0     0     0
   17 085   154   153     1     0    20  1.308     1    40     0     0     0
   17 086   155   154     1     0    20  1.308     1    40     0     0     0
   17 087   156   155     1     0    20  1.308     1    40     0     0     0
   17 088   157   156     1     0    20  1.308     1    40     0     0     0
   17 089   158   157     1     0    20  1.308     1    40     0     0     0
   17 090   159   158     1     0    20  1.308     1    40     0     0     0
   17 091   160   159     1     0    20  1.308     1    40     0     0     0
   17 092   161   160     1     0    20  1.308     1    40     0     0     0
   17 093   162   161     1     0    20  1.308     1    40     0     0     0
   17 094   163   162     1     0    20  1.308     1    40     0     0     0
   17 095   164   163     1     0    20  1.308     1    40     0     0     0
   17 096   165   164     1     0    20  1.308     1    40     0     0     0
   17 097   166   165     1     0    20  1.308     1    40     0     0     0
   17 098   167   166     1     0    20  1.308     1    40     0     0     0
   17 099   168   167     1     0    20  1.308     1    40     0     0     0
   17 100   169   168     1     0    20  1.308     1    40     0     0     0
   17 101   170   169     1     0    20  1.308     1    40     0     0     0
   17 102   171   170     1     0    20  1.308     1    40     0     0     0
   17 103   172   171     1     0    20  1.308     1    40     0     0     0
   17 104   173   172     1     0    20  1.308     1    40     0     0     0
   17 105   174   173     1     0    20  1.308     1    40     0     0     0
   17 106   175   174     1     0    20  1.308     1    40     0     0     0
   17 107   176   175     1     0    20  1.308     1    40     0     0     0
   17 108   177   176     1     0    20  1.308     1    40     0     0     0
   17 109   178   177     1     0    20  1.308     1    40     0     0     0
   17 110   179   178     1     0    20  1.308     1    40     0     0     0
   17 111   180   179     1     0    20  1.308     1    40     0     0     0
   17 112   181   180     1     0    20  1.308     1    40     0     0     0
   17 113   182   181     1     0    20  1.308     1    40     0     0     0
   17 114   183   182     1     0    20  1.308     1    40     0     0     0
   17 115   184   183     1     0    20  1.308     1    40     0     0     0
   17 116   185   184     1     0    20  1.308     1    40     0     0     0
   17 117   186   185     1     0    20  1.308     1    40     0     0     0
   17 118   187   186     1     0    20  1.308     1    40     0     0     0
   17 119   188   187     1     0    20  1.308     1    40     0     0     0
   17 120   189   188     1     0    20  1.308     1    40     0     0     0
   17 121   190   189     1     0    20  1.308     1    40     0     0     0
   17 122   191   190     1     0    20  1.308     1    40     0     0     0
   17 123   192   191     1     0    20  1.308     1    40     0     0     0
   17 124   193   192     1     0    20  1.308     1    40     0     0     0
   17 125   194   193     1     0    20  1.308     1    40     0     0     0
   17 126   195   194     1     0    20  1.308     1    40     0     0     0
   17 127   196   195     1     0    20  1.308     1    40     0     0     0
   17 128   197   196     1     0    20  1.308     1    40     0     0     0
   17 129   198   197     1     0    20  1.308     1    40     0     0     0
   17 130   199   198     1     0    20  1.308     1    40     0     0     0
   17 131   200   199     1     0    20  1.308     1    40     0     0     0
   17 132   201   200     1     0    20  1.308     1    40     0     0     0
   17 133   202   201     1     0    20  1.308     1    40     0     0     0
   17 134   203   202     1     0    20  1.308     1    40     0     0     0
   17 135   204   203     1     0    20  1.308     1    40     0     0     0
   17 136   205   204     1     0    20  1.308     1    40     0     0     0
   17 137   206   205     1     0    20  1.308     1    40     0     0     0
   17 138   207   206     1     0    20  1.308     1    40     0     0     0
   17 139   208   207     1     0    20  1.308     1    40     0     0     0
   17 140   209   208     1     0    20  1.308     1    40     0     0     0
   17 141   210   209     1     0    20  1.308     1    40     0     0     0
   17 142   211   210     1     0    20  1.308     1    40     0     0     0
   17 143   212   211     1     0    20  1.308     1    40     0     0     0
   17 144   213   212     1     0    20  1.308     2    80     0     0     0
   17 145   214   213     1     0    20  1.308     2    80     0     0     0
   17 146   215   214     1     0    20  1.308     2    80     0     0     0
   17 147   216   215     1     0    20  1.308     2    80     0     0     0
   17 148   217   216     1     0    20  1.308     2    80     0     0     0
   17 149   218   217     1     0    20  1.308     2    80     0     0     0
   17 150   219   218     1     0    20  1.308     2    80     0     0     0
   17 151   220   219     1     0    20  1.308     2    80     0     0     0
   17 152   221   220     1     0    20  1.308     2    80     0     0     0
   17 153   222   221     1     0    20  1.308     2    80     0     0     0
   17 154   223   222     1     0    20  1.308     2    80     0     0     0
   17 155   224   223     1     0    20  1.308     2    80     0     0     0
   17 156   225   224     1     0    20  1.308     2    80     0     0     0
   17 157   226   225     1     0    20  1.308     2    80     0     0     0
   17 158   227   226     1     0    20  1.308     2    80     0     0     0
   17 159   228   227     1     0    20  1.308     2    80     0     0     0
   17 160   229   228     1     0    20  1.308     2    80     0     0     0
   17 161   230   229     1     0    20  1.308     2    80     0     0     0
   17 162   231   230     1     0    20  1.308     2    80     0     0     0
   17 163   232   231     1     0    20  1.308     2    80     0     0     0
   17 164   233   232     1     0    20  1.308     3   120     0     0     0
   17 165   234   233     1     0    20  1.308     3   120     0     0     0
   17 166   235   234     1     0    20  1.308     3   120     0     0     0
   17 167   236   235     1     0    20  1.308     3   120     0     0     0
   17 168   237   236     1     0    20  1.308     3   120     0     0     0
   17 169   238   237     1     0    20  1.308     3   120     0     0     0
   17 170   239   238     1     0    20  1.308     3   120     0     0     0
   17 171   240   239     1     0    20  1.308     3   120     0     0     0
   17 172   241   240     1     0    20  1.308     3   120     0     0     0
   17 173   242   241     1     0    20  1.308     3   120     0     0     0
   17 174   243   242     1     0    20  1.308     3   120     0     0     0
   17 175   244   243     1     0    20  1.308     3   120     0     0     0
   17 176   245   244     1     0    20  1.308     3   120     0     0     0
   17 177   246   245     1     0    20  1.308     3   120     0     0     0
   17 178   247   246     1     0    20  1.308     3   120     0     0     0
   17 179   248   247     1     0    20  1.308     3   120     0     0     0
   17 180   249   248     1     0    20  1.308     3   120     0     0     0
   17 181   250   249     1     0    20  1.308     3   120     0     0     0
   17 182   251   250     1     0    20  1.308     3   120     0     0     0
   17 183   252   251     1     0    20  1.308     3   120     0     0     0
   17 184   253   252     1     0    20  1.308     3   120     0     0     0
   17 185   254   253     1     0    20  1.308     3   120     0     0     0
   17 186   255   254     1     0    20  1.308     3   120     0     0     0
   17 187   256   255     1     0    20  1.308     3   120     0     0     0
   17 188   257   256     1     0    20  1.308     3   120     0     0     0
   17 189   258   257     1     0    20  1.308     3   120     0     0     0
   17 190   259   258     1     0    20  1.308     3   120     0     0     0
   17 191   260   259     1     0    20  1.308     3   120     0     0     0
   17 192   261   260     1     0    20  1.308     3   120     0     0     0
   17 193   262   261     1     0    20  1.308     3   120     0     0     0
   17 194   263   262     1     0    20  1.308     3   120     0     0     0
   17 195   264   263     1     0    20  1.308     3   120     0     0     0
   17 196   265   264     1     0    20  1.308     3   120     0     0     0
   17 197   266   265     1     0    20  1.308     3   120     0     0     0
   17 198   267   266     1     0    20  1.308     3   120     0     0     0
   17 199   268   267     1     0    20  1.308     3   120     0     0     0
   17 200   269   268     1     0    20  1.308     3   120     0     0     0
   17 201   270   269     1     0    20  1.308     3   120     0     0     0
   17 202   271   270     1     0    20  1.308     3   120     0     0     0
   17 203   272   271     1     0    20  1.308     3   120     0     0     0
   17 204   273   272     1     0    20  1.308     3   120     0     0     0
   17 205   274   273     1     0    20  1.308     3   120     0     0     0
   17 206   275   274     1     0    20  1.308     3   120     0     0     0
   17 207   276   275     1     0    20  1.308     3   120     0     0     0
   17 208   277   276     1     0    20  1.308     3   120     0     0     0
   17 209   278   277     1     0    20  1.308     3   120     0     0     0
   17 210   279   278     1     0    20  1.308     3   120     0     0     0
   17 211   280   279     1     0    20  1.308     3   120     0     0     0
   17 212   281   280     1     0    20  1.308     3   120     0     0     0
   17 213   282   281     1     0    20  1.308     3   120     0     0     0
   17 214   283   282     1     0    20  1.308     3   120     0     0     0
   17 215   284   283     1     0    20  1.308     3   120     0     0     0
   17 216   285   284     1     0    20  1.308     3   120     0     0     0
   17 217   286   285     1     0    20  1.308     3   120     0     0     0
   17 218   287   286     1     0    20  1.308     3   120     0     0     0
   17 219   288   287     1     0    20  1.308     3   120     0     0     0

*DSSAT Cropping System Model Ver. 4.8.5.000 -release  FEB 02, 2026 11:47:14

*RUN   2        : 2                         WHAPS048 TUDU1701    2
 MODEL          : WHAPS048 - Wheat
 EXPERIMENT     : TUDU1701 WH
 DATA PATH      :
 TREATMENT  2   : 2                         WHAPS048
  

@YEAR DOY   DAS   DAP  TL#C  TLDD DLYR3   TLBD  NAPC  NICM  R#AC RESNC RESPC
   16 298     1     0     1     4    20  1.331     0     0     0     0     0
   16 299     2     1     1     0    20  1.331     0     0     0     0     0
   16 300     3     2     1     0    20  1.331     0     0     0     0     0
   16 301     4     3     1     0    20  1.331     0     0     0     0     0
   16 302     5     4     1     0    20  1.331     0     0     0     0     0
   16 303     6     5     1     0    20  1.331     0     0     0     0     0
   16 304     7     6     1     0    20  1.331     0     0     0     0     0
   16 305     8     7     1     0    20  1.331     0     0     0     0     0
   16 306     9     8     1     0    20  1.331     0     0     0     0     0
   16 307    10     9     1     0    20  1.331     0     0     0     0     0
   16 308    11    10     1     0    20  1.331     0     0     0     0     0
   16 309    12    11     1     0    20  1.331     0     0     0     0     0
   16 310    13    12     1     0    20  1.327     0     0     0     0     0
   16 311    14    13     1     0    20  1.324     0     0     0     0     0
   16 312    15    14     1     0    20  1.324     0     0     0     0     0
   16 313    16    15     1     0    20  1.324     0     0     0     0     0
   16 314    17    16     1     0    20  1.324     0     0     0     0     0
   16 315    18    17     1     0    20  1.322     0     0     0     0     0
   16 316    19    18     1     0    20  1.321     0     0     0     0     0
   16 317    20    19     1     0    20  1.321     0     0     0     0     0
   16 318    21    20     1     0    20  1.321     0     0     0     0     0
   16 319    22    21     1     0    20  1.321     0     0     0     0     0
   16 320    23    22     1     0    20  1.320     0     0     0     0     0
   16 321    24    23     1     0    20  1.318     0     0     0     0     0
   16 322    25    24     1     0    20  1.318     0     0     0     0     0
   16 323    26    25     1     0    20  1.317     0     0     0     0     0
   16 324    27    26     1     0    20  1.316     0     0     0     0     0
   16 325    28    27     1     0    20  1.316     0     0     0     0     0
   16 326    29    28     1     0    20  1.316     0     0     0     0     0
   16 327    30    29     1     0    20  1.316     0     0     0     0     0
   16 328    31    30     1     0    20  1.316     0     0     0     0     0
   16 329    32    31     1     0    20  1.316     0     0     0     0     0
   16 330    33    32     1     0    20  1.316     0     0     0     0     0
   16 331    34    33     1     0    20  1.316     0     0     0     0     0
   16 332    35    34     1     0    20  1.316     0     0     0     0     0
   16 333    36    35     1     0    20  1.316     0     0     0     0     0
   16 334    37    36     1     0    20  1.316     0     0     0     0     0
   16 335    38    37     1     0    20  1.316     0     0     0     0     0
   16 336    39    38     1     0    20  1.316     0     0     0     0     0
   16 337    40    39     1     0    20  1.316     0     0     0     0     0
   16 338    41    40     1     0    20  1.316     0     0     0     0     0
   16 339    42    41     1     0    20  1.316     0     0     0     0     0
   16 340    43    42     1     0    20  1.316     0     0     0     0     0
   16 341    44    43     1     0    20  1.316     0     0     0     0     0
   16 342    45    44     1     0    20  1.316     0     0     0     0     0
   16 343    46    45     1     0    20  1.316     0     0     0     0     0
   16 344    47    46     1     0    20  1.316     0     0     0     0     0
   16 345    48    47     1     0    20  1.316     0     0     0     0     0
   16 346    49    48     1     0    20  1.316     0     0     0     0     0
   16 347    50    49     1     0    20  1.316     0     0     0     0     0
   16 348    51    50     1     0    20  1.316     0     0     0     0     0
   16 349    52    51     1     0    20  1.316     0     0     0     0     0
   16 350    53    52     1     0    20  1.316     0     0     0     0     0
   16 351    54    53     1     0    20  1.316     0     0     0     0     0
   16 352    55    54     1     0    20  1.316     0     0     0     0     0
   16 353    56    55     1     0    20  1.316     0     0     0     0     0
   16 354    57    56     1     0    20  1.316     0     0     0     0     0
   16 355    58    57     1     0    20  1.316     0     0     0     0     0
   16 356    59    58     1     0    20  1.316     0     0     0     0     0
   16 357    60    59     1     0    20  1.316     0     0     0     0     0
   16 358    61    60     1     0    20  1.316     0     0     0     0     0
   16 359    62    61     1     0    20  1.316     0     0     0     0     0
   16 360    63    62     1     0    20  1.316     0     0     0     0     0
   16 361    64    63     1     0    20  1.315     0     0     0     0     0
   16 362    65    64     1     0    20  1.315     0     0     0     0     0
   16 363    66    65     1     0    20  1.315     0     0     0     0     0
   16 364    67    66     1     0    20  1.315     0     0     0     0     0
   16 365    68    67     1     0    20  1.315     0     0     0     0     0
   16 366    69    68     1     0    20  1.315     0     0     0     0     0
   17 001    70    69     1     0    20  1.315     0     0     0     0     0
   17 002    71    70     1     0    20  1.315     0     0     0     0     0
   17 003    72    71     1     0    20  1.315     0     0     0     0     0
   17 004    73    72     1     0    20  1.315     0     0     0     0     0
   17 005    74    73     1     0    20  1.315     0     0     0     0     0
   17 006    75    74     1     0    20  1.315     0     0     0     0     0
   17 007    76    75     1     0    20  1.313     0     0     0     0     0
   17 008    77    76     1     0    20  1.313     0     0     0     0     0
   17 009    78    77     1     0    20  1.313     0     0     0     0     0
   17 010    79    78     1     0    20  1.313     0     0     0     0     0
   17 011    80    79     1     0    20  1.313     0     0     0     0     0
   17 012    81    80     1     0    20  1.312     0     0     0     0     0
   17 013    82    81     1     0    20  1.312     0     0     0     0     0
   17 014    83    82     1     0    20  1.312     0     0     0     0     0
   17 015    84    83     1     0    20  1.312     0     0     0     0     0
   17 016    85    84     1     0    20  1.312     0     0     0     0     0
   17 017    86    85     1     0    20  1.312     0     0     0     0     0
   17 018    87    86     1     0    20  1.312     0     0     0     0     0
   17 019    88    87     1     0    20  1.312     0     0     0     0     0
   17 020    89    88     1     0    20  1.312     0     0     0     0     0
   17 021    90    89     1     0    20  1.312     0     0     0     0     0
   17 022    91    90     1     0    20  1.311     0     0     0     0     0
   17 023    92    91     1     0    20  1.311     0     0     0     0     0
   17 024    93    92     1     0    20  1.311     0     0     0     0     0
   17 025    94    93     1     0    20  1.311     0     0     0     0     0
   17 026    95    94     1     0    20  1.311     0     0     0     0     0
   17 027    96    95     1     0    20  1.311     0     0     0     0     0
   17 028    97    96     1     0    20  1.311     0     0     0     0     0
   17 029    98    97     1     0    20  1.310     0     0     0     0     0
   17 030    99    98     1     0    20  1.310     0     0     0     0     0
   17 031   100    99     1     0    20  1.310     0     0     0     0     0
   17 032   101   100     1     0    20  1.310     0     0     0     0     0
   17 033   102   101     1     0    20  1.310     0     0     0     0     0
   17 034   103   102     1     0    20  1.310     0     0     0     0     0
   17 035   104   103     1     0    20  1.310     1    40     0     0     0
   17 036   105   104     1     0    20  1.310     1    40     0     0     0
   17 037   106   105     1     0    20  1.310     1    40     0     0     0
   17 038   107   106     1     0    20  1.310     1    40     0     0     0
   17 039   108   107     1     0    20  1.310     1    40     0     0     0
   17 040   109   108     1     0    20  1.310     1    40     0     0     0
   17 041   110   109     1     0    20  1.310     1    40     0     0     0
   17 042   111   110     1     0    20  1.310     1    40     0     0     0
   17 043   112   111     1     0    20  1.310     1    40     0     0     0
   17 044   113   112     1     0    20  1.310     1    40     0     0     0
   17 045   114   113     1     0    20  1.310     1    40     0     0     0
   17 046   115   114     1     0    20  1.310     1    40     0     0     0
   17 047   116   115     1     0    20  1.310     1    40     0     0     0
   17 048   117   116     1     0    20  1.308     1    40     0     0     0
   17 049   118   117     1     0    20  1.308     1    40     0     0     0
   17 050   119   118     1     0    20  1.308     1    40     0     0     0
   17 051   120   119     1     0    20  1.308     1    40     0     0     0
   17 052   121   120     1     0    20  1.308     1    40     0     0     0
   17 053   122   121     1     0    20  1.308     1    40     0     0     0
   17 054   123   122     1     0    20  1.308     1    40     0     0     0
   17 055   124   123     1     0    20  1.308     1    40     0     0     0
   17 056   125   124     1     0    20  1.308     1    40     0     0     0
   17 057   126   125     1     0    20  1.308     1    40     0     0     0
   17 058   127   126     1     0    20  1.308     1    40     0     0     0
   17 059   128   127     1     0    20  1.308     1    40     0     0     0
   17 060   129   128     1     0    20  1.308     1    40     0     0     0
   17 061   130   129     1     0    20  1.308     1    40     0     0     0
   17 062   131   130     1     0    20  1.308     1    40     0     0     0
   17 063   132   131     1     0    20  1.308     1    40     0     0     0
   17 064   133   132     1     0    20  1.308     1    40     0     0     0
   17 065   134   133     1     0    20  1.308     1    40     0     0     0
   17 066   135   134     1     0    20  1.308     1    40     0     0     0
   17 067   136   135     1     0    20  1.308     1    40     0     0     0
   17 068   137   136     1     0    20  1.308     1    40     0     0     0
   17 069   138   137     1     0    20  1.308     1    40     0     0     0
   17 070   139   138     1     0    20  1.308     1    40     0     0     0
   17 071   140   139     1     0    20  1.308     1    40     0     0     0
   17 072   141   140     1     0    20  1.308     1    40     0     0     0
   17 073   142   141     1     0    20  1.308     1    40     0     0     0
   17 074   143   142     1     0    20  1.308     1    40     0     0     0
   17 075   144   143     1     0    20  1.308     1    40     0     0     0
   17 076   145   144     1     0    20  1.308     1    40     0     0     0
   17 077   146   145     1     0    20  1.308     1    40     0     0     0
   17 078   147   146     1     0    20  1.308     1    40     0     0     0
   17 079   148   147     1     0    20  1.308     1    40     0     0     0
   17 080   149   148     1     0    20  1.308     1    40     0     0     0
   17 081   150   149     1     0    20  1.308     1    40     0     0     0
   17 082   151   150     1     0    20  1.308     1    40     0     0     0
   17 083   152   151     1     0    20  1.308     1    40     0     0     0
   17 084   153   152     1     0    20  1.308     1    40     0     0     0
   17 085   154   153     1     0    20  1.308     1    40     0     0     0
   17 086   155   154     1     0    20  1.308     1    40     0     0     0
   17 087   156   155     1     0    20  1.308     1    40     0     0     0
   17 088   157   156     1     0    20  1.308     1    40     0     0     0
   17 089   158   157     1     0    20  1.308     1    40     0     0     0
   17 090   159   158     1     0    20  1.308     1    40     0     0     0
   17 091   160   159     1     0    20  1.308     1    40     0     0     0
   17 092   161   160     1     0    20  1.308     1    40     0     0     0
   17 093   162   161     1     0    20  1.308     1    40     0     0     0
   17 094   163   162     1     0    20  1.308     1    40     0     0     0
   17 095   164   163     1     0    20  1.308     1    40     0     0     0
   17 096   165   164     1     0    20  1.308     1    40     0     0     0
   17 097   166   165     1     0    20  1.308     1    40     0     0     0
   17 098   167   166     1     0    20  1.308     1    40     0     0     0
   17 099   168   167     1     0    20  1.308     1    40     0     0     0
   17 100   169   168     1     0    20  1.308     1    40     0     0     0
   17 101   170   169     1     0    20  1.308     1    40     0     0     0
   17 102   171   170     1     0    20  1.308     1    40     0     0     0
   17 103   172   171     1     0    20  1.308     1    40     0     0     0
   17 104   173   172     1     0    20  1.308     1    40     0     0     0
   17 105   174   173     1     0    20  1.308     1    40     0     0     0
   17 106   175   174     1     0    20  1.308     1    40     0     0     0
   17 107   176   175     1     0    20  1.308     1    40     0     0     0
   17 108   177   176     1     0    20  1.308     1    40     0     0     0
   17 109   178   177     1     0    20  1.308     1    40     0     0     0
   17 110   179   178     1     0    20  1.308     1    40     0     0     0
   17 111   180   179     1     0    20  1.308     1    40     0     0     0
   17 112   181   180     1     0    20  1.308     1    40     0     0     0
   17 113   182   181     1     0    20  1.308     1    40     0     0     0
   17 114   183   182     1     0    20  1.308     1    40     0     0     0
   17 115   184   183     1     0    20  1.308     1    40     0     0     0
   17 116   185   184     1     0    20  1.308     1    40     0     0     0
   17 117   186   185     1     0    20  1.308     1    40     0     0     0
   17 118   187   186     1     0    20  1.308     1    40     0     0     0
   17 119   188   187     1     0    20  1.308     1    40     0     0     0
   17 120   189   188     1     0    20  1.308     1    40     0     0     0
   17 121   190   189     1     0    20  1.308     1    40     0     0     0
   17 122   191   190     1     0    20  1.308     1    40     0     0     0
   17 123   192   191     1     0    20  1.308     1    40     0     0     0
   17 124   193   192     1     0    20  1.308     1    40     0     0     0
   17 125   194   193     1     0    20  1.308     1    40     0     0     0
   17 126   195   194     1     0    20  1.308     1    40     0     0     0
   17 127   196   195     1     0    20  1.308     1    40     0     0     0
   17 128   197   196     1     0    20  1.308     1    40     0     0     0
   17 129   198   197     1     0    20  1.308     1    40     0     0     0
   17 130   199   198     1     0    20  1.308     1    40     0     0     0
   17 131   200   199     1     0    20  1.308     1    40     0     0     0
   17 132   201   200     1     0    20  1.308     1    40     0     0     0
   17 133   202   201     1     0    20  1.308     1    40     0     0     0
   17 134   203   202     1     0    20  1.308     1    40     0     0     0
   17 135   204   203     1     0    20  1.308     1    40     0     0     0
   17 136   205   204     1     0    20  1.308     1    40     0     0     0
   17 137   206   205     1     0    20  1.308     1    40     0     0     0
   17 138   207   206     1     0    20  1.308     1    40     0     0     0
   17 139   208   207     1     0    20  1.308     1    40     0     0     0
   17 140   209   208     1     0    20  1.308     1    40     0     0     0
   17 141   210   209     1     0    20  1.308     1    40     0     0     0
   17 142   211   210     1     0    20  1.308     1    40     0     0     0
   17 143   212   211     1     0    20  1.308     1    40     0     0     0
   17 144   213   212     1     0    20  1.308     2    80     0     0     0
   17 145   214   213     1     0    20  1.308     2    80     0     0     0
   17 146   215   214     1     0    20  1.308     2    80     0     0     0
   17 147   216   215     1     0    20  1.308     2    80     0     0     0
   17 148   217   216     1     0    20  1.308     2    80     0     0     0
   17 149   218   217     1     0    20  1.308     2    80     0     0     0
   17 150   219   218     1     0    20  1.308     2    80     0     0     0
   17 151   220   219     1     0    20  1.308     2    80     0     0     0
   17 152   221   220     1     0    20  1.308     2    80     0     0     0
   17 153   222   221     1     0    20  1.308     2    80     0     0     0
   17 154   223   222     1     0    20  1.308     2    80     0     0     0
   17 155   224   223     1     0    20  1.308     2    80     0     0     0
   17 156   225   224     1     0    20  1.308     2    80     0     0     0
   17 157   226   225     1     0    20  1.308     2    80     0     0     0
   17 158   227   226     1     0    20  1.308     2    80     0     0     0
   17 159   228   227     1     0    20  1.308     2    80     0     0     0
   17 160   229   228     1     0    20  1.308     2    80     0     0     0
   17 161   230   229     1     0    20  1.308     2    80     0     0     0
   17 162   231   230     1     0    20  1.308     2    80     0     0     0
   17 163   232   231     1     0    20  1.308     2    80     0     0     0
   17 164   233   232     1     0    20  1.308     3   120     0     0     0
   17 165   234   233     1     0    20  1.308     3   120     0     0     0
   17 166   235   234     1     0    20  1.308     3   120     0     0     0
   17 167   236   235     1     0    20  1.308     3   120     0     0     0
   17 168   237   236     1     0    20  1.308     3   120     0     0     0
   17 169   238   237     1     0    20  1.308     3   120     0     0     0
   17 170   239   238     1     0    20  1.308     3   120     0     0     0
   17 171   240   239     1     0    20  1.308     3   120     0     0     0
   17 172   241   240     1     0    20  1.308     3   120     0     0     0
   17 173   242   241     1     0    20  1.308     3   120     0     0     0
   17 174   243   242     1     0    20  1.308     3   120     0     0     0
   17 175   244   243     1     0    20  1.308     3   120     0     0     0
   17 176   245   244     1     0    20  1.308     3   120     0     0     0
   17 177   246   245     1     0    20  1.308     3   120     0     0     0
   17 178   247   246     1     0    20  1.308     3   120     0     0     0
   17 179   248   247     1     0    20  1.308     3   120     0     0     0
   17 180   249   248     1     0    20  1.308     3   120     0     0     0
   17 181   250   249     1     0    20  1.308     3   120     0     0     0
   17 182   251   250     1     0    20  1.308     3   120     0     0     0
   17 183   252   251     1     0    20  1.308     3   120     0     0     0
   17 184   253   252     1     0    20  1.308     3   120     0     0     0
   17 185   254   253     1     0    20  1.308     3   120     0     0     0
   17 186   255   254     1     0    20  1.308     3   120     0     0     0
   17 187   256   255     1     0    20  1.308     3   120     0     0     0
   17 188   257   256     1     0    20  1.308     3   120     0     0     0
   17 189   258   257     1     0    20  1.308     3   120     0     0     0
   17 190   259   258     1     0    20  1.308     3   120     0     0     0
   17 191   260   259     1     0    20  1.308     3   120     0     0     0
   17 192   261   260     1     0    20  1.308     3   120     0     0     0
   17 193   262   261     1     0    20  1.308     3   120     0     0     0
   17 194   263   262     1     0    20  1.308     3   120     0     0     0
   17 195   264   263     1     0    20  1.308     3   120     0     0     0
   17 196   265   264     1     0    20  1.308     3   120     0     0     0
   17 197   266   265     1     0    20  1.308     3   120     0     0     0
   17 198   267   266     1     0    20  1.308     3   120     0     0     0
   17 199   268   267     1     0    20  1.308     3   120     0     0     0
   17 200   269   268     1     0    20  1.308     3   120     0     0     0
   17 201   270   269     1     0    20  1.308     3   120     0     0     0
   17 202   271   270     1     0    20  1.308     3   120     0     0     0
   17 203   272   271     1     0    20  1.308     3   120     0     0     0
   17 204   273   272     1     0    20  1.308     3   120     0     0     0
   17 205   274   273     1     0    20  1.308     3   120     0     0     0
   17 206   275   274     1     0    20  1.308     3   120     0     0     0
   17 207   276   275     1     0    20  1.308     3   120     0     0     0
   17 208   277   276     1     0    20  1.308     3   120     0     0     0
   17 209   278   277     1     0    20  1.308     3   120     0     0     0
   17 210   279   278     1     0    20  1.308     3   120     0     0     0
   17 211   280   279     1     0    20  1.308     3   120     0     0     0
   17 212   281   280     1     0    20  1.308     3   120     0     0     0
   17 213   282   281     1     0    20  1.308     3   120     0     0     0
   17 214   283   282     1     0    20  1.308     3   120     0     0     0
   17 215   284   283     1     0    20  1.308     3   120     0     0     0
   17 216   285   284     1     0    20  1.308     3   120     0     0     0
   17 217   286   285     1     0    20  1.308     3   120     0     0     0
   17 218   287   286     1     0    20  1.308     3   120     0     0     0
   17 219   288   287     1     0    20  1.308     3   120     0     0     0

*DSSAT Cropping System Model Ver. 4.8.5.000 -release  FEB 02, 2026 11:47:14

*RUN   3        : 3                         WHAPS048 TUDU1701    3
 MODEL          : WHAPS048 - Wheat
 EXPERIMENT     : TUDU1701 WH
 DATA PATH      :
 TREATMENT  3   : 3                         WHAPS048
  

@YEAR DOY   DAS   DAP  TL#C  TLDD DLYR3   TLBD  NAPC  NICM  R#AC RESNC RESPC
   16 298     1     0     1     4    20  1.331     0     0     0     0     0
   16 299     2     1     1     0    20  1.331     0     0     0     0     0
   16 300     3     2     1     0    20  1.331     0     0     0     0     0
   16 301     4     3     1     0    20  1.331     0     0     0     0     0
   16 302     5     4     1     0    20  1.331     0     0     0     0     0
   16 303     6     5     1     0    20  1.331     0     0     0     0     0
   16 304     7     6     1     0    20  1.331     0     0     0     0     0
   16 305     8     7     1     0    20  1.331     0     0     0     0     0
   16 306     9     8     1     0    20  1.331     0     0     0     0     0
   16 307    10     9     1     0    20  1.331     0     0     0     0     0
   16 308    11    10     1     0    20  1.331     0     0     0     0     0
   16 309    12    11     1     0    20  1.331     0     0     0     0     0
   16 310    13    12     1     0    20  1.327     0     0     0     0     0
   16 311    14    13     1     0    20  1.324     0     0     0     0     0
   16 312    15    14     1     0    20  1.324     0     0     0     0     0
   16 313    16    15     1     0    20  1.324     0     0     0     0     0
   16 314    17    16     1     0    20  1.324     0     0     0     0     0
   16 315    18    17     1     0    20  1.322     0     0     0     0     0
   16 316    19    18     1     0    20  1.321     0     0     0     0     0
   16 317    20    19     1     0    20  1.321     0     0     0     0     0
   16 318    21    20     1     0    20  1.321     0     0     0     0     0
   16 319    22    21     1     0    20  1.321     0     0     0     0     0
   16 320    23    22     1     0    20  1.320     0     0     0     0     0
   16 321    24    23     1     0    20  1.318     0     0     0     0     0
   16 322    25    24     1     0    20  1.318     0     0     0     0     0
   16 323    26    25     1     0    20  1.317     0     0     0     0     0
   16 324    27    26     1     0    20  1.316     0     0     0     0     0
   16 325    28    27     1     0    20  1.316     0     0     0     0     0
   16 326    29    28     1     0    20  1.316     0     0     0     0     0
   16 327    30    29     1     0    20  1.316     0     0     0     0     0
   16 328    31    30     1     0    20  1.316     0     0     0     0     0
   16 329    32    31     1     0    20  1.316     0     0     0     0     0
   16 330    33    32     1     0    20  1.316     0     0     0     0     0
   16 331    34    33     1     0    20  1.316     0     0     0     0     0
   16 332    35    34     1     0    20  1.316     0     0     0     0     0
   16 333    36    35     1     0    20  1.316     0     0     0     0     0
   16 334    37    36     1     0    20  1.316     0     0     0     0     0
   16 335    38    37     1     0    20  1.316     0     0     0     0     0
   16 336    39    38     1     0    20  1.316     0     0     0     0     0
   16 337    40    39     1     0    20  1.316     0     0     0     0     0
   16 338    41    40     1     0    20  1.316     0     0     0     0     0
   16 339    42    41     1     0    20  1.316     0     0     0     0     0
   16 340    43    42     1     0    20  1.316     0     0     0     0     0
   16 341    44    43     1     0    20  1.316     0     0     0     0     0
   16 342    45    44     1     0    20  1.316     0     0     0     0     0
   16 343    46    45     1     0    20  1.316     0     0     0     0     0
   16 344    47    46     1     0    20  1.316     0     0     0     0     0
   16 345    48    47     1     0    20  1.316     0     0     0     0     0
   16 346    49    48     1     0    20  1.316     0     0     0     0     0
   16 347    50    49     1     0    20  1.316     0     0     0     0     0
   16 348    51    50     1     0    20  1.316     0     0     0     0     0
   16 349    52    51     1     0    20  1.316     0     0     0     0     0
   16 350    53    52     1     0    20  1.316     0     0     0     0     0
   16 351    54    53     1     0    20  1.316     0     0     0     0     0
   16 352    55    54     1     0    20  1.316     0     0     0     0     0
   16 353    56    55     1     0    20  1.316     0     0     0     0     0
   16 354    57    56     1     0    20  1.316     0     0     0     0     0
   16 355    58    57     1     0    20  1.316     0     0     0     0     0
   16 356    59    58     1     0    20  1.316     0     0     0     0     0
   16 357    60    59     1     0    20  1.316     0     0     0     0     0
   16 358    61    60     1     0    20  1.316     0     0     0     0     0
   16 359    62    61     1     0    20  1.316     0     0     0     0     0
   16 360    63    62     1     0    20  1.316     0     0     0     0     0
   16 361    64    63     1     0    20  1.315     0     0     0     0     0
   16 362    65    64     1     0    20  1.315     0     0     0     0     0
   16 363    66    65     1     0    20  1.315     0     0     0     0     0
   16 364    67    66     1     0    20  1.315     0     0     0     0     0
   16 365    68    67     1     0    20  1.315     0     0     0     0     0
   16 366    69    68     1     0    20  1.315     0     0     0     0     0
   17 001    70    69     1     0    20  1.315     0     0     0     0     0
   17 002    71    70     1     0    20  1.315     0     0     0     0     0
   17 003    72    71     1     0    20  1.315     0     0     0     0     0
   17 004    73    72     1     0    20  1.315     0     0     0     0     0
   17 005    74    73     1     0    20  1.315     0     0     0     0     0
   17 006    75    74     1     0    20  1.315     0     0     0     0     0
   17 007    76    75     1     0    20  1.313     0     0     0     0     0
   17 008    77    76     1     0    20  1.313     0     0     0     0     0
   17 009    78    77     1     0    20  1.313     0     0     0     0     0
   17 010    79    78     1     0    20  1.313     0     0     0     0     0
   17 011    80    79     1     0    20  1.313     0     0     0     0     0
   17 012    81    80     1     0    20  1.312     0     0     0     0     0
   17 013    82    81     1     0    20  1.312     0     0     0     0     0
   17 014    83    82     1     0    20  1.312     0     0     0     0     0
   17 015    84    83     1     0    20  1.312     0     0     0     0     0
   17 016    85    84     1     0    20  1.312     0     0     0     0     0
   17 017    86    85     1     0    20  1.312     0     0     0     0     0
   17 018    87    86     1     0    20  1.312     0     0     0     0     0
   17 019    88    87     1     0    20  1.312     0     0     0     0     0
   17 020    89    88     1     0    20  1.312     0     0     0     0     0
   17 021    90    89     1     0    20  1.312     0     0     0     0     0
   17 022    91    90     1     0    20  1.311     0     0     0     0     0
   17 023    92    91     1     0    20  1.311     0     0     0     0     0
   17 024    93    92     1     0    20  1.311     0     0     0     0     0
   17 025    94    93     1     0    20  1.311     0     0     0     0     0
   17 026    95    94     1     0    20  1.311     0     0     0     0     0
   17 027    96    95     1     0    20  1.311     0     0     0     0     0
   17 028    97    96     1     0    20  1.311     0     0     0     0     0
   17 029    98    97     1     0    20  1.310     0     0     0     0     0
   17 030    99    98     1     0    20  1.310     0     0     0     0     0
   17 031   100    99     1     0    20  1.310     0     0     0     0     0
   17 032   101   100     1     0    20  1.310     0     0     0     0     0
   17 033   102   101     1     0    20  1.310     0     0     0     0     0
   17 034   103   102     1     0    20  1.310     0     0     0     0     0
   17 035   104   103     1     0    20  1.310     0     0     0     0     0
   17 036   105   104     1     0    20  1.310     0     0     0     0     0
   17 037   106   105     1     0    20  1.310     0     0     0     0     0
   17 038   107   106     1     0    20  1.310     0     0     0     0     0
   17 039   108   107     1     0    20  1.310     0     0     0     0     0
   17 040   109   108     1     0    20  1.310     0     0     0     0     0
   17 041   110   109     1     0    20  1.310     0     0     0     0     0
   17 042   111   110     1     0    20  1.310     0     0     0     0     0
   17 043   112   111     1     0    20  1.310     0     0     0     0     0
   17 044   113   112     1     0    20  1.310     0     0     0     0     0
   17 045   114   113     1     0    20  1.310     0     0     0     0     0
   17 046   115   114     1     0    20  1.310     0     0     0     0     0
   17 047   116   115     1     0    20  1.310     0     0     0     0     0
   17 048   117   116     1     0    20  1.308     0     0     0     0     0
   17 049   118   117     1     0    20  1.308     0     0     0     0     0
   17 050   119   118     1     0    20  1.308     0     0     0     0     0
   17 051   120   119     1     0    20  1.308     0     0     0     0     0
   17 052   121   120     1     0    20  1.308     0     0     0     0     0
   17 053   122   121     1     0    20  1.308     0     0     0     0     0
   17 054   123   122     1     0    20  1.308     0     0     0     0     0
   17 055   124   123     1     0    20  1.308     0     0     0     0     0
   17 056   125   124     1     0    20  1.308     0     0     0     0     0
   17 057   126   125     1     0    20  1.308     0     0     0     0     0
   17 058   127   126     1     0    20  1.308     0     0     0     0     0
   17 059   128   127     1     0    20  1.308     0     0     0     0     0
   17 060   129   128     1     0    20  1.308     0     0     0     0     0
   17 061   130   129     1     0    20  1.308     0     0     0     0     0
   17 062   131   130     1     0    20  1.308     0     0     0     0     0
   17 063   132   131     1     0    20  1.308     0     0     0     0     0
   17 064   133   132     1     0    20  1.308     0     0     0     0     0
   17 065   134   133     1     0    20  1.308     0     0     0     0     0
   17 066   135   134     1     0    20  1.308     0     0     0     0     0
   17 067   136   135     1     0    20  1.308     0     0     0     0     0
   17 068   137   136     1     0    20  1.308     0     0     0     0     0
   17 069   138   137     1     0    20  1.308     0     0     0     0     0
   17 070   139   138     1     0    20  1.308     0     0     0     0     0
   17 071   140   139     1     0    20  1.308     0     0     0     0     0
   17 072   141   140     1     0    20  1.308     0     0     0     0     0
   17 073   142   141     1     0    20  1.308     0     0     0     0     0
   17 074   143   142     1     0    20  1.308     0     0     0     0     0
   17 075   144   143     1     0    20  1.308     0     0     0     0     0
   17 076   145   144     1     0    20  1.308     0     0     0     0     0
   17 077   146   145     1     0    20  1.308     0     0     0     0     0
   17 078   147   146     1     0    20  1.308     0     0     0     0     0
   17 079   148   147     1     0    20  1.308     0     0     0     0     0
   17 080   149   148     1     0    20  1.308     0     0     0     0     0
   17 081   150   149     1     0    20  1.308     0     0     0     0     0
   17 082   151   150     1     0    20  1.308     0     0     0     0     0
   17 083   152   151     1     0    20  1.308     0     0     0     0     0
   17 084   153   152     1     0    20  1.308     0     0     0     0     0
   17 085   154   153     1     0    20  1.308     0     0     0     0     0
   17 086   155   154     1     0    20  1.308     0     0     0     0     0
   17 087   156   155     1     0    20  1.308     0     0     0     0     0
   17 088   157   156     1     0    20  1.308     0     0     0     0     0
   17 089   158   157     1     0    20  1.308     0     0     0     0     0
   17 090   159   158     1     0    20  1.308     0     0     0     0     0
   17 091   160   159     1     0    20  1.308     0     0     0     0     0
   17 092   161   160     1     0    20  1.308     0     0     0     0     0
   17 093   162   161     1     0    20  1.308     0     0     0     0     0
   17 094   163   162     1     0    20  1.308     0     0     0     0     0
   17 095   164   163     1     0    20  1.308     0     0     0     0     0
   17 096   165   164     1     0    20  1.308     0     0     0     0     0
   17 097   166   165     1     0    20  1.308     0     0     0     0     0
   17 098   167   166     1     0    20  1.308     0     0     0     0     0
   17 099   168   167     1     0    20  1.308     0     0     0     0     0
   17 100   169   168     1     0    20  1.308     0     0     0     0     0
   17 101   170   169     1     0    20  1.308     0     0     0     0     0
   17 102   171   170     1     0    20  1.308     0     0     0     0     0
   17 103   172   171     1     0    20  1.308     0     0     0     0     0
   17 104   173   172     1     0    20  1.308     0     0     0     0     0
   17 105   174   173     1     0    20  1.308     0     0     0     0     0
   17 106   175   174     1     0    20  1.308     0     0     0     0     0
   17 107   176   175     1     0    20  1.308     0     0     0     0     0
   17 108   177   176     1     0    20  1.308     0     0     0     0     0
   17 109   178   177     1     0    20  1.308     0     0     0     0     0
   17 110   179   178     1     0    20  1.308     0     0     0     0     0
   17 111   180   179     1     0    20  1.308     0     0     0     0     0
   17 112   181   180     1     0    20  1.308     0     0     0     0     0
   17 113   182   181     1     0    20  1.308     0     0     0     0     0
   17 114   183   182     1     0    20  1.308     0     0     0     0     0
   17 115   184   183     1     0    20  1.308     0     0     0     0     0
   17 116   185   184     1     0    20  1.308     0     0     0     0     0
   17 117   186   185     1     0    20  1.308     0     0     0     0     0
   17 118   187   186     1     0    20  1.308     0     0     0     0     0
   17 119   188   187     1     0    20  1.308     0     0     0     0     0
   17 120   189   188     1     0    20  1.308     0     0     0     0     0
   17 121   190   189     1     0    20  1.308     0     0     0     0     0
   17 122   191   190     1     0    20  1.308     0     0     0     0     0
   17 123   192   191     1     0    20  1.308     0     0     0     0     0
   17 124   193   192     1     0    20  1.308     0     0     0     0     0
   17 125   194   193     1     0    20  1.308     0     0     0     0     0
   17 126   195   194     1     0    20  1.308     0     0     0     0     0
   17 127   196   195     1     0    20  1.308     0     0     0     0     0
   17 128   197   196     1     0    20  1.308     0     0     0     0     0
   17 129   198   197     1     0    20  1.308     0     0     0     0     0
   17 130   199   198     1     0    20  1.308     0     0     0     0     0
   17 131   200   199     1     0    20  1.308     0     0     0     0     0
   17 132   201   200     1     0    20  1.308     0     0     0     0     0
   17 133   202   201     1     0    20  1.308     0     0     0     0     0
   17 134   203   202     1     0    20  1.308     0     0     0     0     0
   17 135   204   203     1     0    20  1.308     0     0     0     0     0
   17 136   205   204     1     0    20  1.308     0     0     0     0     0
   17 137   206   205     1     0    20  1.308     0     0     0     0     0
   17 138   207   206     1     0    20  1.308     0     0     0     0     0
   17 139   208   207     1     0    20  1.308     0     0     0     0     0
   17 140   209   208     1     0    20  1.308     0     0     0     0     0
   17 141   210   209     1     0    20  1.308     0     0     0     0     0
   17 142   211   210     1     0    20  1.308     0     0     0     0     0
   17 143   212   211     1     0    20  1.308     0     0     0     0     0
   17 144   213   212     1     0    20  1.308     0     0     0     0     0
   17 145   214   213     1     0    20  1.308     0     0     0     0     0
   17 146   215   214     1     0    20  1.308     0     0     0     0     0
   17 147   216   215     1     0    20  1.308     0     0     0     0     0
   17 148   217   216     1     0    20  1.308     0     0     0     0     0
   17 149   218   217     1     0    20  1.308     0     0     0     0     0
   17 150   219   218     1     0    20  1.308     0     0     0     0     0
   17 151   220   219     1     0    20  1.308     0     0     0     0     0
   17 152   221   220     1     0    20  1.308     0     0     0     0     0
   17 153   222   221     1     0    20  1.308     0     0     0     0     0
   17 154   223   222     1     0    20  1.308     0     0     0     0     0
   17 155   224   223     1     0    20  1.308     0     0     0     0     0
   17 156   225   224     1     0    20  1.308     0     0     0     0     0
   17 157   226   225     1     0    20  1.308     0     0     0     0     0
   17 158   227   226     1     0    20  1.308     0     0     0     0     0
   17 159   228   227     1     0    20  1.308     0     0     0     0     0
   17 160   229   228     1     0    20  1.308     0     0     0     0     0
   17 161   230   229     1     0    20  1.308     0     0     0     0     0
   17 162   231   230     1     0    20  1.308     0     0     0     0     0
   17 163   232   231     1     0    20  1.308     0     0     0     0     0
   17 164   233   232     1     0    20  1.308     1    40     0     0     0
   17 165   234   233     1     0    20  1.308     1    40     0     0     0
   17 166   235   234     1     0    20  1.308     1    40     0     0     0
   17 167   236   235     1     0    20  1.308     1    40     0     0     0
   17 168   237   236     1     0    20  1.308     1    40     0     0     0
   17 169   238   237     1     0    20  1.308     1    40     0     0     0
   17 170   239   238     1     0    20  1.308     1    40     0     0     0
   17 171   240   239     1     0    20  1.308     1    40     0     0     0
   17 172   241   240     1     0    20  1.308     1    40     0     0     0
   17 173   242   241     1     0    20  1.308     1    40     0     0     0
   17 174   243   242     1     0    20  1.308     1    40     0     0     0
   17 175   244   243     1     0    20  1.308     1    40     0     0     0
   17 176   245   244     1     0    20  1.308     1    40     0     0     0
   17 177   246   245     1     0    20  1.308     1    40     0     0     0
   17 178   247   246     1     0    20  1.308     1    40     0     0     0
   17 179   248   247     1     0    20  1.308     1    40     0     0     0
   17 180   249   248     1     0    20  1.308     1    40     0     0     0
   17 181   250   249     1     0    20  1.308     1    40     0     0     0
   17 182   251   250     1     0    20  1.308     1    40     0     0     0
   17 183   252   251     1     0    20  1.308     1    40     0     0     0
   17 184   253   252     1     0    20  1.308     1    40     0     0     0
   17 185   254   253     1     0    20  1.308     1    40     0     0     0
   17 186   255   254     1     0    20  1.308     1    40     0     0     0
   17 187   256   255     1     0    20  1.308     1    40     0     0     0
   17 188   257   256     1     0    20  1.308     1    40     0     0     0
   17 189   258   257     1     0    20  1.308     1    40     0     0     0
   17 190   259   258     1     0    20  1.308     1    40     0     0     0
   17 191   260   259     1     0    20  1.308     1    40     0     0     0
   17 192   261   260     1     0    20  1.308     1    40     0     0     0
   17 193   262   261     1     0    20  1.308     1    40     0     0     0
   17 194   263   262     1     0    20  1.308     1    40     0     0     0
   17 195   264   263     1     0    20  1.308     1    40     0     0     0
   17 196   265   264     1     0    20  1.308     1    40     0     0     0
   17 197   266   265     1     0    20  1.308     1    40     0     0     0
   17 198   267   266     1     0    20  1.308     1    40     0     0     0
   17 199   268   267     1     0    20  1.308     1    40     0     0     0
   17 200   269   268     1     0    20  1.308     1    40     0     0     0
   17 201   270   269     1     0    20  1.308     1    40     0     0     0
   17 202   271   270     1     0    20  1.308     1    40     0     0     0
   17 203   272   271     1     0    20  1.308     1    40     0     0     0
   17 204   273   272     1     0    20  1.308     1    40     0     0     0
   17 205   274   273     1     0    20  1.308     1    40     0     0     0
   17 206   275   274     1     0    20  1.308     1    40     0     0     0
   17 207   276   275     1     0    20  1.308     1    40     0     0     0
   17 208   277   276     1     0    20  1.308     1    40     0     0     0
   17 209   278   277     1     0    20  1.308     1    40     0     0     0
   17 210   279   278     1     0    20  1.308     1    40     0     0     0
   17 211   280   279     1     0    20  1.308     1    40     0     0     0
   17 212   281   280     1     0    20  1.308     1    40     0     0     0
   17 213   282   281     1     0    20  1.308     1    40     0     0     0
   17 214   283   282     1     0    20  1.308     1    40     0     0     0
   17 215   284   283     1     0    20  1.308     1    40     0     0     0
   17 216   285   284     1     0    20  1.308     1    40     0     0     0
   17 217   286   285     1     0    20  1.308     1    40     0     0     0
   17 218   287   286     1     0    20  1.308     1    40     0     0     0
   17 219   288   287     1     0    20  1.308     1    40     0     0     0

*DSSAT Cropping System Model Ver. 4.8.5.000 -release  FEB 02, 2026 11:47:14

*RUN   4        : 4                         WHAPS048 TUDU1701    4
 MODEL          : WHAPS048 - Wheat
 EXPERIMENT     : TUDU1701 WH
 DATA PATH      :
 TREATMENT  4   : 4                         WHAPS048
  

@YEAR DOY   DAS   DAP  TL#C  TLDD DLYR3   TLBD  NAPC  NICM  R#AC RESNC RESPC
   16 298     1     0     1     4    20  1.331     0     0     0     0     0
   16 299     2     1     1     0    20  1.331     0     0     0     0     0
   16 300     3     2     1     0    20  1.331     0     0     0     0     0
   16 301     4     3     1     0    20  1.331     0     0     0     0     0
   16 302     5     4     1     0    20  1.331     0     0     0     0     0
   16 303     6     5     1     0    20  1.331     0     0     0     0     0
   16 304     7     6     1     0    20  1.331     0     0     0     0     0
   16 305     8     7     1     0    20  1.331     0     0     0     0     0
   16 306     9     8     1     0    20  1.331     0     0     0     0     0
   16 307    10     9     1     0    20  1.331     0     0     0     0     0
   16 308    11    10     1     0    20  1.331     0     0     0     0     0
   16 309    12    11     1     0    20  1.331     0     0     0     0     0
   16 310    13    12     1     0    20  1.327     0     0     0     0     0
   16 311    14    13     1     0    20  1.324     0     0     0     0     0
   16 312    15    14     1     0    20  1.324     0     0     0     0     0
   16 313    16    15     1     0    20  1.324     0     0     0     0     0
   16 314    17    16     1     0    20  1.324     0     0     0     0     0
   16 315    18    17     1     0    20  1.322     0     0     0     0     0
   16 316    19    18     1     0    20  1.321     0     0     0     0     0
   16 317    20    19     1     0    20  1.321     0     0     0     0     0
   16 318    21    20     1     0    20  1.321     0     0     0     0     0
   16 319    22    21     1     0    20  1.321     0     0     0     0     0
   16 320    23    22     1     0    20  1.320     0     0     0     0     0
   16 321    24    23     1     0    20  1.318     0     0     0     0     0
   16 322    25    24     1     0    20  1.318     0     0     0     0     0
   16 323    26    25     1     0    20  1.317     0     0     0     0     0
   16 324    27    26     1     0    20  1.316     0     0     0     0     0
   16 325    28    27     1     0    20  1.316     0     0     0     0     0
   16 326    29    28     1     0    20  1.316     0     0     0     0     0
   16 327    30    29     1     0    20  1.316     0     0     0     0     0
   16 328    31    30     1     0    20  1.316     0     0     0     0     0
   16 329    32    31     1     0    20  1.316     0     0     0     0     0
   16 330    33    32     1     0    20  1.316     0     0     0     0     0
   16 331    34    33     1     0    20  1.316     0     0     0     0     0
   16 332    35    34     1     0    20  1.316     0     0     0     0     0
   16 333    36    35     1     0    20  1.316     0     0     0     0     0
   16 334    37    36     1     0    20  1.316     0     0     0     0     0
   16 335    38    37     1     0    20  1.316     0     0     0     0     0
   16 336    39    38     1     0    20  1.316     0     0     0     0     0
   16 337    40    39     1     0    20  1.316     0     0     0     0     0
   16 338    41    40     1     0    20  1.316     0     0     0     0     0
   16 339    42    41     1     0    20  1.316     0     0     0     0     0
   16 340    43    42     1     0    20  1.316     0     0     0     0     0
   16 341    44    43     1     0    20  1.316     0     0     0     0     0
   16 342    45    44     1     0    20  1.316     0     0     0     0     0
   16 343    46    45     1     0    20  1.316     0     0     0     0     0
   16 344    47    46     1     0    20  1.316     0     0     0     0     0
   16 345    48    47     1     0    20  1.316     0     0     0     0     0
   16 346    49    48     1     0    20  1.316     0     0     0     0     0
   16 347    50    49     1     0    20  1.316     0     0     0     0     0
   16 348    51    50     1     0    20  1.316     0     0     0     0     0
   16 349    52    51     1     0    20  1.316     0     0     0     0     0
   16 350    53    52     1     0    20  1.316     0     0     0     0     0
   16 351    54    53     1     0    20  1.316     0     0     0     0     0
   16 352    55    54     1     0    20  1.316     0     0     0     0     0
   16 353    56    55     1     0    20  1.316     0     0     0     0     0
   16 354    57    56     1     0    20  1.316     0     0     0     0     0
   16 355    58    57     1     0    20  1.316     0     0     0     0     0
   16 356    59    58     1     0    20  1.316     0     0     0     0     0
   16 357    60    59     1     0    20  1.316     0     0     0     0     0
   16 358    61    60     1     0    20  1.316     0     0     0     0     0
   16 359    62    61     1     0    20  1.316     0     0     0     0     0
   16 360    63    62     1     0    20  1.316     0     0     0     0     0
   16 361    64    63     1     0    20  1.315     0     0     0     0     0
   16 362    65    64     1     0    20  1.315     0     0     0     0     0
   16 363    66    65     1     0    20  1.315     0     0     0     0     0
   16 364    67    66     1     0    20  1.315     0     0     0     0     0
   16 365    68    67     1     0    20  1.315     0     0     0     0     0
   16 366    69    68     1     0    20  1.315     0     0     0     0     0
   17 001    70    69     1     0    20  1.315     0     0     0     0     0
   17 002    71    70     1     0    20  1.315     0     0     0     0     0
   17 003    72    71     1     0    20  1.315     0     0     0     0     0
   17 004    73    72     1     0    20  1.315     0     0     0     0     0
   17 005    74    73     1     0    20  1.315     0     0     0     0     0
   17 006    75    74     1     0    20  1.315     0     0     0     0     0
   17 007    76    75     1     0    20  1.313     0     0     0     0     0
   17 008    77    76     1     0    20  1.313     0     0     0     0     0
   17 009    78    77     1     0    20  1.313     0     0     0     0     0
   17 010    79    78     1     0    20  1.313     0     0     0     0     0
   17 011    80    79     1     0    20  1.313     0     0     0     0     0
   17 012    81    80     1     0    20  1.312     0     0     0     0     0
   17 013    82    81     1     0    20  1.312     0     0     0     0     0
   17 014    83    82     1     0    20  1.312     0     0     0     0     0
   17 015    84    83     1     0    20  1.312     0     0     0     0     0
   17 016    85    84     1     0    20  1.312     0     0     0     0     0
   17 017    86    85     1     0    20  1.312     0     0     0     0     0
   17 018    87    86     1     0    20  1.312     0     0     0     0     0
   17 019    88    87     1     0    20  1.312     0     0     0     0     0
   17 020    89    88     1     0    20  1.312     0     0     0     0     0
   17 021    90    89     1     0    20  1.312     0     0     0     0     0
   17 022    91    90     1     0    20  1.311     0     0     0     0     0
   17 023    92    91     1     0    20  1.311     0     0     0     0     0
   17 024    93    92     1     0    20  1.311     0     0     0     0     0
   17 025    94    93     1     0    20  1.311     0     0     0     0     0
   17 026    95    94     1     0    20  1.311     0     0     0     0     0
   17 027    96    95     1     0    20  1.311     0     0     0     0     0
   17 028    97    96     1     0    20  1.311     0     0     0     0     0
   17 029    98    97     1     0    20  1.310     0     0     0     0     0
   17 030    99    98     1     0    20  1.310     0     0     0     0     0
   17 031   100    99     1     0    20  1.310     0     0     0     0     0
   17 032   101   100     1     0    20  1.310     0     0     0     0     0
   17 033   102   101     1     0    20  1.310     0     0     0     0     0
   17 034   103   102     1     0    20  1.310     0     0     0     0     0
   17 035   104   103     1     0    20  1.310     1    40     0     0     0
   17 036   105   104     1     0    20  1.310     1    40     0     0     0
   17 037   106   105     1     0    20  1.310     1    40     0     0     0
   17 038   107   106     1     0    20  1.310     1    40     0     0     0
   17 039   108   107     1     0    20  1.310     1    40     0     0     0
   17 040   109   108     1     0    20  1.310     1    40     0     0     0
   17 041   110   109     1     0    20  1.310     1    40     0     0     0
   17 042   111   110     1     0    20  1.310     1    40     0     0     0
   17 043   112   111     1     0    20  1.310     1    40     0     0     0
   17 044   113   112     1     0    20  1.310     1    40     0     0     0
   17 045   114   113     1     0    20  1.310     1    40     0     0     0
   17 046   115   114     1     0    20  1.310     1    40     0     0     0
   17 047   116   115     1     0    20  1.310     1    40     0     0     0
   17 048   117   116     1     0    20  1.308     1    40     0     0     0
   17 049   118   117     1     0    20  1.308     1    40     0     0     0
   17 050   119   118     1     0    20  1.308     1    40     0     0     0
   17 051   120   119     1     0    20  1.308     1    40     0     0     0
   17 052   121   120     1     0    20  1.308     1    40     0     0     0
   17 053   122   121     1     0    20  1.308     1    40     0     0     0
   17 054   123   122     1     0    20  1.308     1    40     0     0     0
   17 055   124   123     1     0    20  1.308     1    40     0     0     0
   17 056   125   124     1     0    20  1.308     1    40     0     0     0
   17 057   126   125     1     0    20  1.308     1    40     0     0     0
   17 058   127   126     1     0    20  1.308     1    40     0     0     0
   17 059   128   127     1     0    20  1.308     1    40     0     0     0
   17 060   129   128     1     0    20  1.308     1    40     0     0     0
   17 061   130   129     1     0    20  1.308     1    40     0     0     0
   17 062   131   130     1     0    20  1.308     1    40     0     0     0
   17 063   132   131     1     0    20  1.308     1    40     0     0     0
   17 064   133   132     1     0    20  1.308     1    40     0     0     0
   17 065   134   133     1     0    20  1.308     1    40     0     0     0
   17 066   135   134     1     0    20  1.308     1    40     0     0     0
   17 067   136   135     1     0    20  1.308     1    40     0     0     0
   17 068   137   136     1     0    20  1.308     1    40     0     0     0
   17 069   138   137     1     0    20  1.308     1    40     0     0     0
   17 070   139   138     1     0    20  1.308     1    40     0     0     0
   17 071   140   139     1     0    20  1.308     1    40     0     0     0
   17 072   141   140     1     0    20  1.308     1    40     0     0     0
   17 073   142   141     1     0    20  1.308     1    40     0     0     0
   17 074   143   142     1     0    20  1.308     1    40     0     0     0
   17 075   144   143     1     0    20  1.308     1    40     0     0     0
   17 076   145   144     1     0    20  1.308     1    40     0     0     0
   17 077   146   145     1     0    20  1.308     1    40     0     0     0
   17 078   147   146     1     0    20  1.308     1    40     0     0     0
   17 079   148   147     1     0    20  1.308     1    40     0     0     0
   17 080   149   148     1     0    20  1.308     1    40     0     0     0
   17 081   150   149     1     0    20  1.308     1    40     0     0     0
   17 082   151   150     1     0    20  1.308     1    40     0     0     0
   17 083   152   151     1     0    20  1.308     1    40     0     0     0
   17 084   153   152     1     0    20  1.308     1    40     0     0     0
   17 085   154   153     1     0    20  1.308     1    40     0     0     0
   17 086   155   154     1     0    20  1.308     1    40     0     0     0
[...]
   16 327    30    29     1     0    20  1.316     0     0     0     0     0
   16 328    31    30     1     0    20  1.316     0     0     0     0     0
   16 329    32    31     1     0    20  1.316     0     0     0     0     0
   16 330    33    32     1     0    20  1.316     0     0     0     0     0
   16 331    34    33     1     0    20  1.316     0     0     0     0     0
   16 332    35    34     1     0    20  1.316     0     0     0     0     0
   16 333    36    35     1     0    20  1.316     0     0     0     0     0
   16 334    37    36     1     0    20  1.316     0     0     0     0     0
   16 335    38    37     1     0    20  1.316     0     0     0     0     0
   16 336    39    38     1     0    20  1.316     0     0     0     0     0
   16 337    40    39     1     0    20  1.316     0     0     0     0     0
   16 338    41    40     1     0    20  1.316     0     0     0     0     0
   16 339    42    41     1     0    20  1.316     0     0     0     0     0
   16 340    43    42     1     0    20  1.316     0     0     0     0     0
   16 341    44    43     1     0    20  1.316     0     0     0     0     0
   16 342    45    44     1     0    20  1.316     0     0     0     0     0
   16 343    46    45     1     0    20  1.316     0     0     0     0     0
   16 344    47    46     1     0    20  1.316     0     0     0     0     0
   16 345    48    47     1     0    20  1.316     0     0     0     0     0
   16 346    49    48     1     0    20  1.316     0     0     0     0     0
   16 347    50    49     1     0    20  1.316     0     0     0     0     0
   16 348    51    50     1     0    20  1.316     0     0     0     0     0
   16 349    52    51     1     0    20  1.316     0     0     0     0     0
   16 350    53    52     1     0    20  1.316     0     0     0     0     0
   16 351    54    53     1     0    20  1.316     0     0     0     0     0
   16 352    55    54     1     0    20  1.316     0     0     0     0     0
   16 353    56    55     1     0    20  1.316     0     0     0     0     0
   16 354    57    56     1     0    20  1.316     0     0     0     0     0
   16 355    58    57     1     0    20  1.316     0     0     0     0     0
   16 356    59    58     1     0    20  1.316     0     0     0     0     0
   16 357    60    59     1     0    20  1.316     0     0     0     0     0
   16 358    61    60     1     0    20  1.316     0     0     0     0     0
   16 359    62    61     1     0    20  1.316     0     0     0     0     0
   16 360    63    62     1     0    20  1.316     0     0     0     0     0
   16 361    64    63     1     0    20  1.315     0     0     0     0     0
   16 362    65    64     1     0    20  1.315     0     0     0     0     0
   16 363    66    65     1     0    20  1.315     0     0     0     0     0
   16 364    67    66     1     0    20  1.315     0     0     0     0     0
   16 365    68    67     1     0    20  1.315     0     0     0     0     0
   16 366    69    68     1     0    20  1.315     0     0     0     0     0
   17 001    70    69     1     0    20  1.315     0     0     0     0     0
   17 002    71    70     1     0    20  1.315     0     0     0     0     0
   17 003    72    71     1     0    20  1.315     0     0     0     0     0
   17 004    73    72     1     0    20  1.315     0     0     0     0     0
   17 005    74    73     1     0    20  1.315     0     0     0     0     0
   17 006    75    74     1     0    20  1.315     0     0     0     0     0
   17 007    76    75     1     0    20  1.313     0     0     0     0     0
   17 008    77    76     1     0    20  1.313     0     0     0     0     0
   17 009    78    77     1     0    20  1.313     0     0     0     0     0
   17 010    79    78     1     0    20  1.313     0     0     0     0     0
   17 011    80    79     1     0    20  1.313     0     0     0     0     0
   17 012    81    80     1     0    20  1.312     0     0     0     0     0
   17 013    82    81     1     0    20  1.312     0     0     0     0     0
   17 014    83    82     1     0    20  1.312     0     0     0     0     0
   17 015    84    83     1     0    20  1.312     0     0     0     0     0
   17 016    85    84     1     0    20  1.312     0     0     0     0     0
   17 017    86    85     1     0    20  1.312     0     0     0     0     0
   17 018    87    86     1     0    20  1.312     0     0     0     0     0
   17 019    88    87     1     0    20  1.312     0     0     0     0     0
   17 020    89    88     1     0    20  1.312     0     0     0     0     0
   17 021    90    89     1     0    20  1.312     0     0     0     0     0
   17 022    91    90     1     0    20  1.311     0     0     0     0     0
   17 023    92    91     1     0    20  1.311     0     0     0     0     0
   17 024    93    92     1     0    20  1.311     0     0     0     0     0
   17 025    94    93     1     0    20  1.311     0     0     0     0     0
   17 026    95    94     1     0    20  1.311     0     0     0     0     0
   17 027    96    95     1     0    20  1.311     0     0     0     0     0
   17 028    97    96     1     0    20  1.311     0     0     0     0     0
   17 029    98    97     1     0    20  1.310     0     0     0     0     0
   17 030    99    98     1     0    20  1.310     0     0     0     0     0
   17 031   100    99     1     0    20  1.310     0     0     0     0     0
   17 032   101   100     1     0    20  1.310     0     0     0     0     0
   17 033   102   101     1     0    20  1.310     0     0     0     0     0
   17 034   103   102     1     0    20  1.310     0     0     0     0     0
   17 035   104   103     1     0    20  1.310     0     0     0     0     0
   17 036   105   104     1     0    20  1.310     0     0     0     0     0
   17 037   106   105     1     0    20  1.310     0     0     0     0     0
   17 038   107   106     1     0    20  1.310     0     0     0     0     0
   17 039   108   107     1     0    20  1.310     0     0     0     0     0
   17 040   109   108     1     0    20  1.310     0     0     0     0     0
   17 041   110   109     1     0    20  1.310     0     0     0     0     0
   17 042   111   110     1     0    20  1.310     0     0     0     0     0
   17 043   112   111     1     0    20  1.310     0     0     0     0     0
   17 044   113   112     1     0    20  1.310     0     0     0     0     0
   17 045   114   113     1     0    20  1.310     0     0     0     0     0
   17 046   115   114     1     0    20  1.310     0     0     0     0     0
   17 047   116   115     1     0    20  1.310     0     0     0     0     0
   17 048   117   116     1     0    20  1.308     0     0     0     0     0
   17 049   118   117     1     0    20  1.308     0     0     0     0     0
   17 050   119   118     1     0    20  1.308     0     0     0     0     0
   17 051   120   119     1     0    20  1.308     0     0     0     0     0
   17 052   121   120     1     0    20  1.308     0     0     0     0     0
   17 053   122   121     1     0    20  1.308     0     0     0     0     0
   17 054   123   122     1     0    20  1.308     0     0     0     0     0
   17 055   124   123     1     0    20  1.308     0     0     0     0     0
   17 056   125   124     1     0    20  1.308     0     0     0     0     0
   17 057   126   125     1     0    20  1.308     0     0     0     0     0
   17 058   127   126     1     0    20  1.308     0     0     0     0     0
   17 059   128   127     1     0    20  1.308     0     0     0     0     0
   17 060   129   128     1     0    20  1.308     0     0     0     0     0
   17 061   130   129     1     0    20  1.308     0     0     0     0     0
   17 062   131   130     1     0    20  1.308     0     0     0     0     0
   17 063   132   131     1     0    20  1.308     0     0     0     0     0
   17 064   133   132     1     0    20  1.308     0     0     0     0     0
   17 065   134   133     1     0    20  1.308     0     0     0     0     0
   17 066   135   134     1     0    20  1.308     0     0     0     0     0
   17 067   136   135     1     0    20  1.308     0     0     0     0     0
   17 068   137   136     1     0    20  1.308     0     0     0     0     0
   17 069   138   137     1     0    20  1.308     0     0     0     0     0
   17 070   139   138     1     0    20  1.308     0     0     0     0     0
   17 071   140   139     1     0    20  1.308     0     0     0     0     0
   17 072   141   140     1     0    20  1.308     0     0     0     0     0
   17 073   142   141     1     0    20  1.308     0     0     0     0     0
   17 074   143   142     1     0    20  1.308     0     0     0     0     0
   17 075   144   143     1     0    20  1.308     0     0     0     0     0
   17 076   145   144     1     0    20  1.308     0     0     0     0     0
   17 077   146   145     1     0    20  1.308     0     0     0     0     0
   17 078   147   146     1     0    20  1.308     0     0     0     0     0
   17 079   148   147     1     0    20  1.308     0     0     0     0     0
   17 080   149   148     1     0    20  1.308     0     0     0     0     0
   17 081   150   149     1     0    20  1.308     0     0     0     0     0
   17 082   151   150     1     0    20  1.308     0     0     0     0     0
   17 083   152   151     1     0    20  1.308     0     0     0     0     0
   17 084   153   152     1     0    20  1.308     0     0     0     0     0
   17 085   154   153     1     0    20  1.308     0     0     0     0     0
   17 086   155   154     1     0    20  1.308     0     0     0     0     0
   17 087   156   155     1     0    20  1.308     0     0     0     0     0
   17 088   157   156     1     0    20  1.308     0     0     0     0     0
   17 089   158   157     1     0    20  1.308     0     0     0     0     0
   17 090   159   158     1     0    20  1.308     0     0     0     0     0
   17 091   160   159     1     0    20  1.308     0     0     0     0     0
   17 092   161   160     1     0    20  1.308     0     0     0     0     0
   17 093   162   161     1     0    20  1.308     0     0     0     0     0
   17 094   163   162     1     0    20  1.308     0     0     0     0     0
   17 095   164   163     1     0    20  1.308     0     0     0     0     0
   17 096   165   164     1     0    20  1.308     0     0     0     0     0
   17 097   166   165     1     0    20  1.308     0     0     0     0     0
   17 098   167   166     1     0    20  1.308     0     0     0     0     0
   17 099   168   167     1     0    20  1.308     0     0     0     0     0
   17 100   169   168     1     0    20  1.308     0     0     0     0     0
   17 101   170   169     1     0    20  1.308     0     0     0     0     0
   17 102   171   170     1     0    20  1.308     0     0     0     0     0
   17 103   172   171     1     0    20  1.308     0     0     0     0     0
   17 104   173   172     1     0    20  1.308     0     0     0     0     0
   17 105   174   173     1     0    20  1.308     0     0     0     0     0
   17 106   175   174     1     0    20  1.308     0     0     0     0     0
   17 107   176   175     1     0    20  1.308     0     0     0     0     0
   17 108   177   176     1     0    20  1.308     0     0     0     0     0
   17 109   178   177     1     0    20  1.308     0     0     0     0     0
   17 110   179   178     1     0    20  1.308     0     0     0     0     0
   17 111   180   179     1     0    20  1.308     0     0     0     0     0
   17 112   181   180     1     0    20  1.308     0     0     0     0     0
   17 113   182   181     1     0    20  1.308     0     0     0     0     0
   17 114   183   182     1     0    20  1.308     0     0     0     0     0
   17 115   184   183     1     0    20  1.308     0     0     0     0     0
   17 116   185   184     1     0    20  1.308     0     0     0     0     0
   17 117   186   185     1     0    20  1.308     0     0     0     0     0
   17 118   187   186     1     0    20  1.308     0     0     0     0     0
   17 119   188   187     1     0    20  1.308     0     0     0     0     0
   17 120   189   188     1     0    20  1.308     0     0     0     0     0
   17 121   190   189     1     0    20  1.308     0     0     0     0     0
   17 122   191   190     1     0    20  1.308     0     0     0     0     0
   17 123   192   191     1     0    20  1.308     0     0     0     0     0
   17 124   193   192     1     0    20  1.308     0     0     0     0     0
   17 125   194   193     1     0    20  1.308     0     0     0     0     0
   17 126   195   194     1     0    20  1.308     0     0     0     0     0
   17 127   196   195     1     0    20  1.308     0     0     0     0     0
   17 128   197   196     1     0    20  1.308     0     0     0     0     0
   17 129   198   197     1     0    20  1.308     0     0     0     0     0
   17 130   199   198     1     0    20  1.308     0     0     0     0     0
   17 131   200   199     1     0    20  1.308     0     0     0     0     0
   17 132   201   200     1     0    20  1.308     0     0     0     0     0
   17 133   202   201     1     0    20  1.308     0     0     0     0     0
   17 134   203   202     1     0    20  1.308     0     0     0     0     0
   17 135   204   203     1     0    20  1.308     0     0     0     0     0
   17 136   205   204     1     0    20  1.308     0     0     0     0     0
   17 137   206   205     1     0    20  1.308     0     0     0     0     0
   17 138   207   206     1     0    20  1.308     0     0     0     0     0
   17 139   208   207     1     0    20  1.308     0     0     0     0     0
   17 140   209   208     1     0    20  1.308     0     0     0     0     0
   17 141   210   209     1     0    20  1.308     0     0     0     0     0
   17 142   211   210     1     0    20  1.308     0     0     0     0     0
   17 143   212   211     1     0    20  1.308     0     0     0     0     0
   17 144   213   212     1     0    20  1.308     0     0     0     0     0
   17 145   214   213     1     0    20  1.308     0     0     0     0     0
   17 146   215   214     1     0    20  1.308     0     0     0     0     0
   17 147   216   215     1     0    20  1.308     0     0     0     0     0
   17 148   217   216     1     0    20  1.308     0     0     0     0     0
   17 149   218   217     1     0    20  1.308     0     0     0     0     0
   17 150   219   218     1     0    20  1.308     0     0     0     0     0
   17 151   220   219     1     0    20  1.308     0     0     0     0     0
   17 152   221   220     1     0    20  1.308     0     0     0     0     0
   17 153   222   221     1     0    20  1.308     0     0     0     0     0
   17 154   223   222     1     0    20  1.308     0     0     0     0     0
   17 155   224   223     1     0    20  1.308     0     0     0     0     0
   17 156   225   224     1     0    20  1.308     0     0     0     0     0
   17 157   226   225     1     0    20  1.308     0     0     0     0     0
   17 158   227   226     1     0    20  1.308     0     0     0     0     0
   17 159   228   227     1     0    20  1.308     0     0     0     0     0
   17 160   229   228     1     0    20  1.308     0     0     0     0     0
   17 161   230   229     1     0    20  1.308     0     0     0     0     0
   17 162   231   230     1     0    20  1.308     0     0     0     0     0
   17 163   232   231     1     0    20  1.308     0     0     0     0     0
   17 164   233   232     1     0    20  1.308     0     0     0     0     0
   17 165   234   233     1     0    20  1.308     0     0     0     0     0
   17 166   235   234     1     0    20  1.308     0     0     0     0     0
   17 167   236   235     1     0    20  1.308     0     0     0     0     0
   17 168   237   236     1     0    20  1.308     0     0     0     0     0
   17 169   238   237     1     0    20  1.308     0     0     0     0     0
   17 170   239   238     1     0    20  1.308     0     0     0     0     0
   17 171   240   239     1     0    20  1.308     0     0     0     0     0
   17 172   241   240     1     0    20  1.308     0     0     0     0     0
   17 173   242   241     1     0    20  1.308     0     0     0     0     0
   17 174   243   242     1     0    20  1.308     0     0     0     0     0
   17 175   244   243     1     0    20  1.308     0     0     0     0     0
   17 176   245   244     1     0    20  1.308     0     0     0     0     0
   17 177   246   245     1     0    20  1.308     0     0     0     0     0
   17 178   247   246     1     0    20  1.308     0     0     0     0     0
   17 179   248   247     1     0    20  1.308     0     0     0     0     0
   17 180   249   248     1     0    20  1.308     0     0     0     0     0
   17 181   250   249     1     0    20  1.308     0     0     0     0     0
   17 182   251   250     1     0    20  1.308     0     0     0     0     0
   17 183   252   251     1     0    20  1.308     0     0     0     0     0
   17 184   253   252     1     0    20  1.308     0     0     0     0     0
   17 185   254   253     1     0    20  1.308     0     0     0     0     0
   17 186   255   254     1     0    20  1.308     0     0     0     0     0
   17 187   256   255     1     0    20  1.308     0     0     0     0     0
   17 188   257   256     1     0    20  1.308     0     0     0     0     0
   17 189   258   257     1     0    20  1.308     0     0     0     0     0
   17 190   259   258     1     0    20  1.308     0     0     0     0     0
   17 191   260   259     1     0    20  1.308     0     0     0     0     0
   17 192   261   260     1     0    20  1.308     0     0     0     0     0
   17 193   262   261     1     0    20  1.308     0     0     0     0     0
   17 194   263   262     1     0    20  1.308     0     0     0     0     0
   17 195   264   263     1     0    20  1.308     0     0     0     0     0
   17 196   265   264     1     0    20  1.308     0     0     0     0     0
   17 197   266   265     1     0    20  1.308     0     0     0     0     0
   17 198   267   266     1     0    20  1.308     0     0     0     0     0
   17 199   268   267     1     0    20  1.308     0     0     0     0     0
   17 200   269   268     1     0    20  1.308     0     0     0     0     0
   17 201   270   269     1     0    20  1.308     0     0     0     0     0
   17 202   271   270     1     0    20  1.308     0     0     0     0     0
   17 203   272   271     1     0    20  1.308     0     0     0     0     0
   17 204   273   272     1     0    20  1.308     0     0     0     0     0
   17 205   274   273     1     0    20  1.308     0     0     0     0     0
   17 206   275   274     1     0    20  1.308     0     0     0     0     0
   17 207   276   275     1     0    20  1.308     0     0     0     0     0
   17 208   277   276     1     0    20  1.308     0     0     0     0     0
   17 209   278   277     1     0    20  1.308     0     0     0     0     0
   17 210   279   278     1     0    20  1.308     0     0     0     0     0
   17 211   280   279     1     0    20  1.308     0     0     0     0     0
   17 212   281   280     1     0    20  1.308     0     0     0     0     0
   17 213   282   281     1     0    20  1.308     0     0     0     0     0
   17 214   283   282     1     0    20  1.308     0     0     0     0     0
   17 215   284   283     1     0    20  1.308     0     0     0     0     0
   17 216   285   284     1     0    20  1.308     0     0     0     0     0
   17 217   286   285     1     0    20  1.308     0     0     0     0     0
   17 218   287   286     1     0    20  1.308     0     0     0     0     0
   17 219   288   287     1     0    20  1.308     0     0     0     0     0
