*N2O emissions output file

*DSSAT Cropping System Model Ver. 4.8.5.000 -release  FEB 02, 2026 11:47:14

*RUN   1        : 1                         WHAPS048 TUDU1701    1
 MODEL          : WHAPS048 - Wheat
 EXPERIMENT     : TUDU1701 WH
 DATA PATH      :
 TREATMENT  1   : 1                         WHAPS048
  
!              |------------------------------ Cumulative -----------------------------|------------------------------ Daily ----------------------------------|
!               N2Oemit  N2emit  NOemit   Denit  Nitrif   N2O-denit+nit      N2      NO N2Oemit  N2emit  NOemit   Denit  Nitrif   N2O-denit+nit      N2      NO   Denitrification (g[N]/ha) by soil depth (cm):                                   Nitrification (g[N]/ha) by soil depth (cm):                                     N2O flux (g[N]/ha) by soil depth (cm):                                          N2 flux (g[N]/ha) by soil depth (cm):                                           NO flux (g[N]/ha) by soil depth (cm):
!                 kg/ha   kg/ha   kg/ha   kg/ha   kg/ha   kg/ha   kg/ha   kg/ha   kg/ha    g/ha    g/ha    g/ha    g/ha    g/ha    g/ha    g/ha    g/ha    g/ha     0-5    5-15   15-20   20-30   30-40   40-50   50-60   60-70   70-90  90-210     0-5    5-15   15-20   20-30   30-40   40-50   50-60   60-70   70-90  90-210     0-5    5-15   15-20   20-30   30-40   40-50   50-60   60-70   70-90  90-210     0-5    5-15   15-20   20-30   30-40   40-50   50-60   60-70   70-90  90-210     0-5    5-15   15-20   20-30   30-40   40-50   50-60   60-70   70-90  90-210
@YEAR DOY   DAS   N2OEC    N2EC    NOEC    NDNC    NITC   N2ODC   N2ONC   N2FLC   NOFLC  N2OGED   N2GED   NOGED    NDND   NITRD   N2ODD   N2OND   N2FLD   NOFLD   NDN1D   NDN2D   NDN3D   NDN4D   NDN5D   NDN6D   NDN7D   NDN8D   NDN9D   NDN10   NIT1D   NIT2D   NIT3D   NIT4D   NIT5D   NIT6D   NIT7D   NIT8D   NIT9D   NIT10   N2O1D   N2O2D   N2O3D   N2O4D   N2O5D   N2O6D   N2O7D   N2O8D   N2O9D   N2O10   N2F1D   N2F2D   N2F3D   N2F4D   N2F5D   N2F6D   N2F7D   N2F8D   N2F9D   N2F10   NOF1D   NOF2D   NOF3D   NOF4D   NOF5D   NOF6D   NOF7D   NOF8D   NOF9D   NOF10
   16 298     1    0.00    0.00    0.00    0.00     1.4   0.000   0.001   0.000   0.007     0.0     0.0     0.1     0.0    1430    0.00    1.43    0.00    7.01     0.0     0.0     0.0     0.0     0.0     0.0     0.0     0.0     0.0     0.0     24.     52.     27.     56.     50.     60.     62.     64.    135.    142.     0.0     0.1     0.0     0.1     0.1     0.1     0.1     0.1     0.1     0.1     0.0     0.0     0.0     0.0     0.0     0.0     0.0     0.0     0.0     0.0     0.4     0.6     0.3     0.5     0.3     0.4     0.3     0.3     0.6     0.5
   16 299     2    0.00    0.00    0.00    0.00     2.6   0.000   0.003   0.000   0.011     0.0     0.0     0.1     0.0    1174    0.00    1.17    0.00    4.24     0.0     0.0     0.0     0.0     0.0     0.0     0.0     0.0     0.0     0.0      0.      0.     24.     49.     46.     52.     54.     56.    117.    123.     0.0     0.0     0.0     0.0     0.0     0.1     0.1     0.1     0.1     0.1     0.0     0.0     0.0     0.0     0.0     0.0     0.0     0.0     0.0     0.0     0.0     0.0     0.2     0.3     0.2     0.3     0.2     0.2     0.4     0.4
   16 300     3    0.00    0.00    0.00    0.00     3.6   0.000   0.004   0.000   0.014     0.0     0.0     0.1     0.0    1009    0.00    1.01    0.00    2.97     0.0     0.0     0.0     0.0     0.0     0.0     0.0     0.0     0.0     0.0      0.      0.     21.     43.     41.     45.     47.     48.    101.    105.     0.0     0.0     0.0     0.0     0.0     0.0     0.0     0.0     0.1     0.1     0.0     0.0     0.0     0.0     0.0     0.0     0.0     0.0     0.0     0.0     0.0     0.0     0.1     0.2     0.2     0.2     0.2     0.2     0.3     0.3
   16 301     4    0.00    0.00    0.00    0.00     4.5   0.000   0.004   0.000   0.016     0.0     0.0     0.1     0.0     844    0.00    0.84    0.00    2.02     0.0     0.0     0.0     0.0     0.0     0.0     0.0     0.0     0.0     0.0      0.      0.     18.     36.     35.     38.     39.     41.     84.     87.     0.0     0.0     0.0     0.0     0.0     0.0     0.0     0.0     0.1     0.1     0.0     0.0     0.0     0.0     0.0     0.0     0.0     0.0     0.0     0.0     0.0     0.0     0.1     0.2     0.1     0.1     0.1     0.1     0.2     0.2
   16 302     5    0.00    0.00    0.00    0.00     5.2   0.000   0.005   0.000   0.018     0.0     0.0     0.1     0.0     705    0.00    0.70    0.00    1.38     0.0     0.0     0.0     0.0     0.0     0.0     0.0     0.0     0.0     0.0      0.      0.     15.     30.     34.     31.     33.     34.     69.     72.     0.0     0.0     0.0     0.0     0.0     0.0     0.0     0.0     0.1     0.1     0.0     0.0     0.0     0.0     0.0     0.0     0.0     0.0     0.0     0.0     0.0     0.0     0.1     0.1     0.1     0.1     0.1     0.1     0.1     0.1
   16 303     6    0.00    0.00    0.00    0.00     5.7   0.000   0.006   0.000   0.019     0.0     0.0     0.1     0.0     588    0.00    0.59    0.00    0.93     0.0     0.0     0.0     0.0     0.0     0.0     0.0     0.0     0.0     0.0      0.      0.     12.     25.     28.     26.     27.     28.     57.     60.     0.0     0.0     0.0     0.0     0.0     0.0     0.0     0.0     0.1     0.1     0.0     0.0     0.0     0.0     0.0     0.0     0.0     0.0     0.0     0.0     0.0     0.0     0.0     0.1     0.1     0.1     0.0     0.0     0.1     0.1
   16 304     7    0.00    0.00    0.00    0.00     6.2   0.000   0.006   0.000   0.019     0.0     0.0     0.1     0.0     500    0.00    0.50    0.00    0.64     0.0     0.0     0.0     0.0     0.0     0.0     0.0     0.0     0.0     0.0      0.      0.     11.     21.     24.     22.     23.     24.     48.     51.     0.0     0.0     0.0     0.0     0.0     0.0     0.0     0.0     0.0     0.1     0.0     0.0     0.0     0.0     0.0     0.0     0.0     0.0     0.0     0.0     0.0     0.0     0.0     0.1     0.0     0.0     0.0     0.0     0.1     0.1
   16 305     8    0.00    0.00    0.00    0.00     6.7   0.000   0.007   0.000   0.020     0.0     0.0     0.1     0.0     429    0.00    0.43    0.00    0.51     0.0     0.0     0.0     0.0     0.0     0.0     0.0     0.0     0.0     0.0      0.      0.      9.     18.     20.     19.     20.     20.     41.     43.     0.0     0.0     0.0     0.0     0.0     0.0     0.0     0.0     0.0     0.0     0.0     0.0     0.0     0.0     0.0     0.0     0.0     0.0     0.0     0.0     0.0     0.0     0.0     0.0     0.0     0.0     0.0     0.0     0.0     0.0
   16 306     9    0.00    0.00    0.00    0.00     7.1   0.000   0.007   0.000   0.020     0.0     0.0     0.1     0.0     381    0.00    0.38    0.00    0.46     0.0     0.0     0.0     0.0     0.0     0.0     0.0     0.0     0.0     0.0      0.      0.      8.     16.     18.     17.     18.     18.     37.     39.     0.0     0.0     0.0     0.0     0.0     0.0     0.0     0.0     0.0     0.0     0.0     0.0     0.0     0.0     0.0     0.0     0.0     0.0     0.0     0.0     0.0     0.0     0.0     0.0     0.0     0.0     0.0     0.0     0.0     0.0
   16 307    10    0.00    0.00    0.00    0.00     7.4   0.000   0.007   0.000   0.021     0.0     0.0     0.2     0.0     339    0.00    0.34    0.00    0.40     0.0     0.0     0.0     0.0     0.0     0.0     0.0     0.0     0.0     0.0      0.      0.      7.     14.     16.     15.     16.     16.     32.     34.     0.0     0.0     0.0     0.0     0.0     0.0     0.0     0.0     0.0     0.0     0.0     0.0     0.0     0.0     0.0     0.0     0.0     0.0     0.0     0.0     0.0     0.0     0.0     0.0     0.0     0.0     0.0     0.0     0.0     0.0
   16 308    11    0.00    0.00    0.00    0.00     7.7   0.000   0.008   0.000   0.021     0.0     0.0     0.2     0.0     312    0.00    0.31    0.00    0.37     0.0     0.0     0.0     0.0     0.0     0.0     0.0     0.0     0.0     0.0      0.      0.      7.     13.     15.     14.     14.     15.     30.     31.     0.0     0.0     0.0     0.0     0.0     0.0     0.0     0.0     0.0     0.0     0.0     0.0     0.0     0.0     0.0     0.0     0.0     0.0     0.0     0.0     0.0     0.0     0.0     0.0     0.0     0.0     0.0     0.0     0.0     0.0
   16 309    12    0.00    0.00    0.00    0.00     8.0   0.000   0.008   0.000   0.021     0.0     0.0     0.2     0.0     278    0.00    0.28    0.00    0.33     0.0     0.0     0.0     0.0     0.0     0.0     0.0     0.0     0.0     0.0      0.      0.      6.     12.     13.     12.     13.     13.     26.     28.     0.0     0.0     0.0     0.0     0.0     0.0     0.0     0.0     0.0     0.0     0.0     0.0     0.0     0.0     0.0     0.0     0.0     0.0     0.0     0.0     0.0     0.0     0.0     0.0     0.0     0.0     0.0     0.0     0.0     0.0
   16 310    13    0.00    0.00    0.00    0.00     8.2   0.000   0.008   0.000   0.022     0.0     0.0     0.2     0.0     250    0.00    0.25    0.00    0.30     0.0     0.0     0.0     0.0     0.0     0.0     0.0     0.0     0.0     0.0      0.      0.      5.     10.     12.     11.     11.     12.     24.     25.     0.0     0.0     0.0     0.0     0.0     0.0     0.0     0.0     0.0     0.0     0.0     0.0     0.0     0.0     0.0     0.0     0.0     0.0     0.0     0.0     0.0     0.0     0.0     0.0     0.0     0.0     0.0     0.0     0.0     0.0
   16 311    14    0.00    0.00    0.00    0.00     8.5   0.000   0.008   0.000   0.022     0.0     0.0     0.1     0.0     236    0.00    0.24    0.00    0.28     0.0     0.0     0.0     0.0     0.0     0.0     0.0     0.0     0.0     0.0      0.      0.      5.     10.     11.     10.     11.     11.     22.     24.     0.0     0.0     0.0     0.0     0.0     0.0     0.0     0.0     0.0     0.0     0.0     0.0     0.0     0.0     0.0     0.0     0.0     0.0     0.0     0.0     0.0     0.0     0.0     0.0     0.0     0.0     0.0     0.0     0.0     0.0
   16 312    15    0.00    0.00    0.00    0.00     8.7   0.000   0.009   0.000   0.022     0.0     0.0     0.1     0.0     218    0.00    0.22    0.00    0.25     0.0     0.0     0.0     0.0     0.0     0.0     0.0     0.0     0.0     0.0      0.      0.      3.      8.      9.     10.     10.     10.     21.     22.     0.0     0.0     0.0     0.0     0.0     0.0     0.0     0.0     0.0     0.0     0.0     0.0     0.0     0.0     0.0     0.0     0.0     0.0     0.0     0.0     0.0     0.0     0.0     0.0     0.0     0.0     0.0     0.0     0.0     0.0
   16 313    16    0.00    0.00    0.00    0.00     8.9   0.000   0.009   0.000   0.022     0.0     0.0     0.1     0.0     194    0.00    0.19    0.00    0.22     0.0     0.0     0.0     0.0     0.0     0.0     0.0     0.0     0.0     0.0      0.      0.      4.      7.      8.      8.      9.      9.     18.     19.     0.0     0.0     0.0     0.0     0.0     0.0     0.0     0.0     0.0     0.0     0.0     0.0     0.0     0.0     0.0     0.0     0.0     0.0     0.0     0.0     0.0     0.0     0.0     0.0     0.0     0.0     0.0     0.0     0.0     0.0
   16 314    17    0.00    0.00    0.00    0.00     9.1   0.000   0.009   0.000   0.023     0.0     0.0     0.2     0.0     176    0.00    0.18    0.00    0.20     0.0     0.0     0.0     0.0     0.0     0.0     0.0     0.0     0.0     0.0      0.      0.      3.      6.      7.      7.      8.      8.     16.     18.     0.0     0.0     0.0     0.0     0.0     0.0     0.0     0.0     0.0     0.0     0.0     0.0     0.0     0.0     0.0     0.0     0.0     0.0     0.0     0.0     0.0     0.0     0.0     0.0     0.0     0.0     0.0     0.0     0.0     0.0
   16 315    18    0.00    0.00    0.00    0.00     9.2   0.000   0.009   0.000   0.023     0.0     0.0     0.1     0.0     161    0.00    0.16    0.00    0.18     0.0     0.0     0.0     0.0     0.0     0.0     0.0     0.0     0.0     0.0      0.      0.      3.      6.      6.      6.      7.      7.     15.     16.     0.0     0.0     0.0     0.0     0.0     0.0     0.0     0.0     0.0     0.0     0.0     0.0     0.0     0.0     0.0     0.0     0.0     0.0     0.0     0.0     0.0     0.0     0.0     0.0     0.0     0.0     0.0     0.0     0.0     0.0
   16 316    19    0.00    0.00    0.00    0.00     9.4   0.000   0.009   0.000   0.023     0.0     0.0     0.1     0.0     142    0.00    0.14    0.00    0.15     0.0     0.0     0.0     0.0     0.0     0.0     0.0     0.0     0.0     0.0      0.      0.      2.      5.      6.      5.      5.      5.     13.     14.     0.0     0.0     0.0     0.0     0.0     0.0     0.0     0.0     0.0     0.0     0.0     0.0     0.0     0.0     0.0     0.0     0.0     0.0     0.0     0.0     0.0     0.0     0.0     0.0     0.0     0.0     0.0     0.0     0.0     0.0
   16 317    20    0.00    0.00    0.00    0.00     9.5   0.000   0.009   0.000   0.023     0.0     0.0     0.1     0.0     128    0.00    0.13    0.00    0.13     0.0     0.0     0.0     0.0     0.0     0.0     0.0     0.0     0.0     0.0      0.      0.      2.      4.      5.      5.      5.      5.     10.     13.     0.0     0.0     0.0     0.0     0.0     0.0     0.0     0.0     0.0     0.0     0.0     0.0     0.0     0.0     0.0     0.0     0.0     0.0     0.0     0.0     0.0     0.0     0.0     0.0     0.0     0.0     0.0     0.0     0.0     0.0
   16 318    21    0.00    0.00    0.00    0.00     9.6   0.000   0.010   0.000   0.023     0.0     0.0     0.2     0.0     121    0.00    0.12    0.00    0.13     0.0     0.0     0.0     0.0     0.0     0.0     0.0     0.0     0.0     0.0      0.      0.      2.      4.      5.      4.      4.      5.      9.     12.     0.0     0.0     0.0     0.0     0.0     0.0     0.0     0.0     0.0     0.0     0.0     0.0     0.0     0.0     0.0     0.0     0.0     0.0     0.0     0.0     0.0     0.0     0.0     0.0     0.0     0.0     0.0     0.0     0.0     0.0
   16 319    22    0.00    0.00    0.00    0.00     9.7   0.000   0.010   0.000   0.023     0.0     0.0     0.2     0.0     112    0.00    0.11    0.00    0.12     0.0     0.0     0.0     0.0     0.0     0.0     0.0     0.0     0.0     0.0      0.      0.      2.      4.      5.      4.      4.      4.      8.     11.     0.0     0.0     0.0     0.0     0.0     0.0     0.0     0.0     0.0     0.0     0.0     0.0     0.0     0.0     0.0     0.0     0.0     0.0     0.0     0.0     0.0     0.0     0.0     0.0     0.0     0.0     0.0     0.0     0.0     0.0
   16 320    23    0.00    0.00    0.00    0.00     9.8   0.000   0.010   0.000   0.023     0.1     0.0     0.2     0.0     102    0.00    0.10    0.00    0.11     0.0     0.0     0.0     0.0     0.0     0.0     0.0     0.0     0.0     0.0      0.      0.      2.      4.      4.      4.      4.      4.      8.      9.     0.0     0.0     0.0     0.0     0.0     0.0     0.0     0.0     0.0     0.0     0.0     0.0     0.0     0.0     0.0     0.0     0.0     0.0     0.0     0.0     0.0     0.0     0.0     0.0     0.0     0.0     0.0     0.0     0.0     0.0
   16 321    24    0.00    0.00    0.00    0.00     9.9   0.000   0.010   0.000   0.023     0.0     0.0     0.1     0.0      92    0.00    0.09    0.00    0.10     0.0     0.0     0.0     0.0     0.0     0.0     0.0     0.0     0.0     0.0      0.      0.      2.      4.      4.      3.      3.      3.      7.      8.     0.0     0.0     0.0     0.0     0.0     0.0     0.0     0.0     0.0     0.0     0.0     0.0     0.0     0.0     0.0     0.0     0.0     0.0     0.0     0.0     0.0     0.0     0.0     0.0     0.0     0.0     0.0     0.0     0.0     0.0
   16 322    25    0.00    0.00    0.00    0.00    10.0   0.000   0.010   0.000   0.024     0.0     0.0     0.1     0.0      88    0.00    0.09    0.00    0.09     0.0     0.0     0.0     0.0     0.0     0.0     0.0     0.0     0.0     0.0      0.      0.      1.      3.      4.      3.      3.      3.      7.      7.     0.0     0.0     0.0     0.0     0.0     0.0     0.0     0.0     0.0     0.0     0.0     0.0     0.0     0.0     0.0     0.0     0.0     0.0     0.0     0.0     0.0     0.0     0.0     0.0     0.0     0.0     0.0     0.0     0.0     0.0
   16 323    26    0.00    0.00    0.00    0.00    10.1   0.000   0.010   0.000   0.024     0.0     0.0     0.2     0.0      89    0.00    0.09    0.00    0.10     0.0     0.0     0.0     0.0     0.0     0.0     0.0     0.0     0.0     0.0      0.      0.      2.      4.      4.      3.      3.      3.      7.      7.     0.0     0.0     0.0     0.0     0.0     0.0     0.0     0.0     0.0     0.0     0.0     0.0     0.0     0.0     0.0     0.0     0.0     0.0     0.0     0.0     0.0     0.0     0.0     0.0     0.0     0.0     0.0     0.0     0.0     0.0
   16 324    27    0.00    0.00    0.00    0.00    10.2   0.000   0.010   0.000   0.024     0.0     0.0     0.1     0.0      92    0.00    0.09    0.00    0.10     0.0     0.0     0.0     0.0     0.0     0.0     0.0     0.0     0.0     0.0      0.      0.      2.      4.      4.      4.      4.      4.      7.      7.     0.0     0.0     0.0     0.0     0.0     0.0     0.0     0.0     0.0     0.0     0.0     0.0     0.0     0.0     0.0     0.0     0.0     0.0     0.0     0.0     0.0     0.0     0.0     0.0     0.0     0.0     0.0     0.0     0.0     0.0
   16 325    28    0.00    0.00    0.00    0.00    10.3   0.000   0.010   0.000   0.024     0.0     0.0     0.1     0.0      92    0.00    0.09    0.00    0.09     0.0     0.0     0.0     0.0     0.0     0.0     0.0     0.0     0.0     0.0      0.      0.      1.      3.      4.      3.      3.      4.      7.      7.     0.0     0.0     0.0     0.0     0.0     0.0     0.0     0.0     0.0     0.0     0.0     0.0     0.0     0.0     0.0     0.0     0.0     0.0     0.0     0.0     0.0     0.0     0.0     0.0     0.0     0.0     0.0     0.0     0.0     0.0
   16 326    29    0.00    0.00    0.00    0.00    10.4   0.000   0.010   0.000   0.024     0.1     0.0     0.2     0.0      97    0.00    0.10    0.00    0.10     0.0     0.0     0.0     0.0     0.0     0.0     0.0     0.0     0.0     0.0      0.      0.      2.      4.      4.      4.      4.      4.      7.      8.     0.0     0.0     0.0     0.0     0.0     0.0     0.0     0.0     0.0     0.0     0.0     0.0     0.0     0.0     0.0     0.0     0.0     0.0     0.0     0.0     0.0     0.0     0.0     0.0     0.0     0.0     0.0     0.0     0.0     0.0
   16 327    30    0.00    0.00    0.00    0.00    10.5   0.000   0.010   0.001   0.024     0.1     0.0     0.3     1.1      99    0.11    0.10    0.95    0.22     0.0     0.0     0.0     0.0     0.0     0.0     0.0     0.0     0.7     0.4      0.      0.      2.      4.      4.      4.      4.      4.      7.      8.     0.0     0.0     0.0     0.0     0.0     0.0     0.0     0.0     0.1     0.0     0.0     0.0     0.0     0.0     0.0     0.0     0.0     0.0     0.6     0.3     0.0     0.0     0.0     0.0     0.0     0.0     0.0     0.0     0.1     0.0
   16 328    31    0.00    0.00    0.00    0.00    10.6   0.000   0.011   0.003   0.025     0.1     0.0     0.3     2.0     101    0.21    0.10    1.82    0.37     0.0     0.0     0.0     0.0     0.3     0.4     0.2     0.3     0.6     0.3      0.      0.      2.      4.      4.      4.      4.      4.      8.      8.     0.0     0.0     0.0     0.0     0.0     0.0     0.0     0.0     0.1     0.0     0.0     0.0     0.0     0.0     0.2     0.3     0.2     0.3     0.5     0.3     0.0     0.0     0.0     0.0     0.0     0.1     0.0     0.0     0.1     0.0
   16 329    32    0.00    0.00    0.00    0.01    10.7   0.001   0.011   0.005   0.025     0.1     0.0     0.3     2.2     100    0.21    0.10    2.01    0.39     0.0     0.1     0.2     0.2     0.2     0.3     0.1     0.2     0.5     0.3      0.      0.      2.      4.      4.      3.      4.      4.      8.      8.     0.0     0.0     0.0     0.0     0.0     0.0     0.0     0.0     0.1     0.0     0.0     0.1     0.2     0.2     0.1     0.2     0.1     0.2     0.5     0.2     0.0     0.0     0.0     0.0     0.0     0.0     0.0     0.0     0.1     0.0
   16 330    33    0.00    0.00    0.00    0.01    10.8   0.001   0.011   0.007   0.025     0.1     0.0     0.3     1.9     101    0.18    0.10    1.73    0.36     0.0     0.0     0.1     0.2     0.1     0.2     0.1     0.2     0.5     0.2      0.      0.      2.      3.      4.      3.      4.      4.      8.      9.     0.0     0.0     0.0     0.0     0.0     0.0     0.0     0.0     0.1     0.0     0.0     0.0     0.1     0.2     0.1     0.2     0.1     0.2     0.4     0.2     0.0     0.0     0.0     0.0     0.0     0.0     0.0     0.0     0.1     0.0
   16 331    34    0.00    0.00    0.01    0.01    10.9   0.001   0.011   0.008   0.026     0.1     0.0     0.3     1.6     104    0.15    0.10    1.44    0.32     0.0     0.0     0.1     0.2     0.1     0.2     0.1     0.2     0.4     0.2      0.      0.      2.      3.      4.      4.      4.      4.      8.      9.     0.0     0.0     0.0     0.0     0.0     0.0     0.0     0.0     0.1     0.0     0.0     0.0     0.1     0.1     0.1     0.2     0.0     0.2     0.4     0.2     0.0     0.0     0.0     0.0     0.0     0.0     0.0     0.0     0.1     0.0
   16 332    35    0.00    0.00    0.01    0.01    11.0   0.001   0.011   0.009   0.026     0.1     0.0     0.3     1.4     103    0.14    0.10    1.28    0.30     0.0     0.0     0.1     0.1     0.1     0.2     0.0     0.2     0.4     0.2      0.      0.      2.      3.      4.      3.      4.      4.      8.      9.     0.0     0.0     0.0     0.0     0.0     0.0     0.0     0.0     0.0     0.0     0.0     0.0     0.1     0.1     0.1     0.2     0.0     0.2     0.4     0.2     0.0     0.0     0.0     0.0     0.0     0.0     0.0     0.0     0.1     0.0
   16 333    36    0.00    0.00    0.01    0.01    11.1   0.001   0.011   0.010   0.026     0.1     0.0     0.3     1.0     100    0.09    0.10    0.87    0.23     0.0     0.0     0.1     0.1     0.0     0.1     0.0     0.1     0.3     0.1      0.      0.      2.      3.      4.      3.      4.      4.      8.      9.     0.0     0.0     0.0     0.0     0.0     0.0     0.0     0.0     0.0     0.0     0.0     0.0     0.1     0.1     0.0     0.1     0.0     0.1     0.3     0.1     0.0     0.0     0.0     0.0     0.0     0.0     0.0     0.0     0.0     0.0
   16 334    37    0.00    0.00    0.01    0.01    11.2   0.001   0.011   0.011   0.026     0.1     0.0     0.3     0.6      92    0.06    0.09    0.50    0.17     0.0     0.0     0.0     0.0     0.0     0.0     0.0     0.1     0.3     0.1      0.      0.      1.      3.      3.      3.      4.      3.      7.      8.     0.0     0.0     0.0     0.0     0.0     0.0     0.0     0.0     0.0     0.0     0.0     0.0     0.0     0.0     0.0     0.0     0.0     0.1     0.3     0.1     0.0     0.0     0.0     0.0     0.0     0.0     0.0     0.0     0.0     0.0
   16 335    38    0.00    0.00    0.01    0.01    11.3   0.001   0.011   0.011   0.026     0.1     0.0     0.3     0.1      81    0.01    0.08    0.05    0.10     0.0     0.0     0.0     0.0     0.0     0.0     0.0     0.0     0.0     0.0      0.      0.      1.      2.      3.      2.      3.      3.      6.      7.     0.0     0.0     0.0     0.0     0.0     0.0     0.0     0.0     0.0     0.0     0.0     0.0     0.0     0.0     0.0     0.0     0.0     0.0     0.0     0.0     0.0     0.0     0.0     0.0     0.0     0.0     0.0     0.0     0.0     0.0
   16 336    39    0.00    0.00    0.01    0.01    11.3   0.001   0.011   0.011   0.026     0.1     0.1     0.3     0.0      69    0.00    0.07    0.00    0.08     0.0     0.0     0.0     0.0     0.0     0.0     0.0     0.0     0.0     0.0      0.      0.      1.      2.      2.      2.      2.      2.      5.      6.     0.0     0.0     0.0     0.0     0.0     0.0     0.0     0.0     0.0     0.0     0.0     0.0     0.0     0.0     0.0     0.0     0.0     0.0     0.0     0.0     0.0     0.0     0.0     0.0     0.0     0.0     0.0     0.0     0.0     0.0
   16 337    40    0.00    0.00    0.01    0.01    11.4   0.001   0.011   0.011   0.027     0.1     0.1     0.3     0.0      62    0.00    0.06    0.00    0.07     0.0     0.0     0.0     0.0     0.0     0.0     0.0     0.0     0.0     0.0      0.      0.      1.      2.      2.      2.      2.      2.      4.      5.     0.0     0.0     0.0     0.0     0.0     0.0     0.0     0.0     0.0     0.0     0.0     0.0     0.0     0.0     0.0     0.0     0.0     0.0     0.0     0.0     0.0     0.0     0.0     0.0     0.0     0.0     0.0     0.0     0.0     0.0
   16 338    41    0.00    0.00    0.01    0.01    11.4   0.001   0.011   0.011   0.027     0.1     0.1     0.3     0.0      59    0.00    0.06    0.00    0.07     0.0     0.0     0.0     0.0     0.0     0.0     0.0     0.0     0.0     0.0      0.      0.      1.      2.      2.      2.      2.      2.      4.      6.     0.0     0.0     0.0     0.0     0.0     0.0     0.0     0.0     0.0     0.0     0.0     0.0     0.0     0.0     0.0     0.0     0.0     0.0     0.0     0.0     0.0     0.0     0.0     0.0     0.0     0.0     0.0     0.0     0.0     0.0
   16 339    42    0.00    0.00    0.01    0.01    11.5   0.001   0.012   0.011   0.027     0.1     0.1     0.3     0.0      54    0.00    0.05    0.00    0.06     0.0     0.0     0.0     0.0     0.0     0.0     0.0     0.0     0.0     0.0      0.      0.      1.      2.      2.      2.      2.      2.      4.      5.     0.0     0.0     0.0     0.0     0.0     0.0     0.0     0.0     0.0     0.0     0.0     0.0     0.0     0.0     0.0     0.0     0.0     0.0     0.0     0.0     0.0     0.0     0.0     0.0     0.0     0.0     0.0     0.0     0.0     0.0
   16 340    43    0.00    0.00    0.01    0.01    11.6   0.001   0.012   0.011   0.027     0.1     0.1     0.3     0.0      50    0.00    0.05    0.00    0.06     0.0     0.0     0.0     0.0     0.0     0.0     0.0     0.0     0.0     0.0      0.      0.      1.      1.      2.      2.      2.      2.      4.      5.     0.0     0.0     0.0     0.0     0.0     0.0     0.0     0.0     0.0     0.0     0.0     0.0     0.0     0.0     0.0     0.0     0.0     0.0     0.0     0.0     0.0     0.0     0.0     0.0     0.0     0.0     0.0     0.0     0.0     0.0
   16 341    44    0.00    0.00    0.01    0.01    11.6   0.001   0.012   0.011   0.027     0.1     0.1     0.3     0.0      46    0.00    0.05    0.00    0.05     0.0     0.0     0.0     0.0     0.0     0.0     0.0     0.0     0.0     0.0      0.      0.      1.      1.      2.      2.      2.      2.      3.      4.     0.0     0.0     0.0     0.0     0.0     0.0     0.0     0.0     0.0     0.0     0.0     0.0     0.0     0.0     0.0     0.0     0.0     0.0     0.0     0.0     0.0     0.0     0.0     0.0     0.0     0.0     0.0     0.0     0.0     0.0
   16 342    45    0.00    0.00    0.01    0.01    11.6   0.001   0.012   0.011   0.027     0.1     0.1     0.3     0.0      40    0.00    0.04    0.00    0.05     0.0     0.0     0.0     0.0     0.0     0.0     0.0     0.0     0.0     0.0      0.      0.      1.      1.      1.      1.      1.      2.      3.      4.     0.0     0.0     0.0     0.0     0.0     0.0     0.0     0.0     0.0     0.0     0.0     0.0     0.0     0.0     0.0     0.0     0.0     0.0     0.0     0.0     0.0     0.0     0.0     0.0     0.0     0.0     0.0     0.0     0.0     0.0
   16 343    46    0.00    0.00    0.01    0.01    11.7   0.001   0.012   0.011   0.027     0.1     0.1     0.3     0.0      36    0.00    0.04    0.00    0.04     0.0     0.0     0.0     0.0     0.0     0.0     0.0     0.0     0.0     0.0      0.      0.      1.      1.      1.      1.      1.      2.      3.      3.     0.0     0.0     0.0     0.0     0.0     0.0     0.0     0.0     0.0     0.0     0.0     0.0     0.0     0.0     0.0     0.0     0.0     0.0     0.0     0.0     0.0     0.0     0.0     0.0     0.0     0.0     0.0     0.0     0.0     0.0
   16 344    47    0.00    0.00    0.01    0.01    11.7   0.001   0.012   0.011   0.027     0.1     0.1     0.3     0.0      34    0.00    0.03    0.00    0.04     0.0     0.0     0.0     0.0     0.0     0.0     0.0     0.0     0.0     0.0      0.      0.      1.      1.      1.      1.      1.      1.      3.      3.     0.0     0.0     0.0     0.0     0.0     0.0     0.0     0.0     0.0     0.0     0.0     0.0     0.0     0.0     0.0     0.0     0.0     0.0     0.0     0.0     0.0     0.0     0.0     0.0     0.0     0.0     0.0     0.0     0.0     0.0
   16 345    48    0.00    0.00    0.01    0.01    11.7   0.001   0.012   0.011   0.027     0.1     0.1     0.3     0.0      33    0.00    0.03    0.00    0.04     0.0     0.0     0.0     0.0     0.0     0.0     0.0     0.0     0.0     0.0      0.      0.      1.      1.      1.      1.      1.      1.      3.      3.     0.0     0.0     0.0     0.0     0.0     0.0     0.0     0.0     0.0     0.0     0.0     0.0     0.0     0.0     0.0     0.0     0.0     0.0     0.0     0.0     0.0     0.0     0.0     0.0     0.0     0.0     0.0     0.0     0.0     0.0
   16 346    49    0.00    0.00    0.01    0.01    11.8   0.001   0.012   0.011   0.027     0.1     0.1     0.3     0.0      32    0.00    0.03    0.00    0.09     0.0     0.0     0.0     0.0     0.0     0.0     0.0     0.0     0.0     0.0      0.      0.      1.      1.      1.      1.      1.      1.      3.      3.     0.0     0.0     0.0     0.0     0.0     0.0     0.0     0.0     0.0     0.0     0.0     0.0     0.0     0.0     0.0     0.0     0.0     0.0     0.0     0.0     0.0     0.0     0.0     0.0     0.0     0.0     0.0     0.0     0.0     0.0
   16 347    50    0.00    0.00    0.01    0.01    11.8   0.001   0.012   0.011   0.027     0.1     0.1     0.3     0.0      31    0.00    0.03    0.00    0.06     0.0     0.0     0.0     0.0     0.0     0.0     0.0     0.0     0.0     0.0      0.      0.      1.      1.      1.      1.      1.      1.      3.      3.     0.0     0.0     0.0     0.0     0.0     0.0     0.0     0.0     0.0     0.0     0.0     0.0     0.0     0.0     0.0     0.0     0.0     0.0     0.0     0.0     0.0     0.0     0.0     0.0     0.0     0.0     0.0     0.0     0.0     0.0
   16 348    51    0.00    0.00    0.01    0.01    11.8   0.001   0.012   0.011   0.027     0.1     0.1     0.3     0.0      30    0.00    0.03    0.00    0.04     0.0     0.0     0.0     0.0     0.0     0.0     0.0     0.0     0.0     0.0      0.      0.      1.      1.      1.      1.      1.      1.      3.      3.     0.0     0.0     0.0     0.0     0.0     0.0     0.0     0.0     0.0     0.0     0.0     0.0     0.0     0.0     0.0     0.0     0.0     0.0     0.0     0.0     0.0     0.0     0.0     0.0     0.0     0.0     0.0     0.0     0.0     0.0
   16 349    52    0.00    0.00    0.01    0.01    11.9   0.001   0.012   0.011   0.027     0.1     0.1     0.3     0.0      29    0.00    0.03    0.00    0.03     0.0     0.0     0.0     0.0     0.0     0.0     0.0     0.0     0.0     0.0      0.      0.      1.      1.      1.      1.      1.      1.      3.      3.     0.0     0.0     0.0     0.0     0.0     0.0     0.0     0.0     0.0     0.0     0.0     0.0     0.0     0.0     0.0     0.0     0.0     0.0     0.0     0.0     0.0     0.0     0.0     0.0     0.0     0.0     0.0     0.0     0.0     0.0
   16 350    53    0.00    0.00    0.01    0.01    11.9   0.001   0.012   0.011   0.027     0.1     0.1     0.3     0.0      29    0.00    0.03    0.00    0.03     0.0     0.0     0.0     0.0     0.0     0.0     0.0     0.0     0.0     0.0      0.      0.      1.      1.      1.      1.      1.      1.      3.      3.     0.0     0.0     0.0     0.0     0.0     0.0     0.0     0.0     0.0     0.0     0.0     0.0     0.0     0.0     0.0     0.0     0.0     0.0     0.0     0.0     0.0     0.0     0.0     0.0     0.0     0.0     0.0     0.0     0.0     0.0
   16 351    54    0.00    0.00    0.01    0.01    11.9   0.001   0.012   0.011   0.027     0.1     0.1     0.3     0.0      28    0.00    0.03    0.00    0.03     0.0     0.0     0.0     0.0     0.0     0.0     0.0     0.0     0.0     0.0      0.      0.      1.      1.      1.      1.      1.      1.      2.      2.     0.0     0.0     0.0     0.0     0.0     0.0     0.0     0.0     0.0     0.0     0.0     0.0     0.0     0.0     0.0     0.0     0.0     0.0     0.0     0.0     0.0     0.0     0.0     0.0     0.0     0.0     0.0     0.0     0.0     0.0
   16 352    55    0.00    0.00    0.01    0.01    11.9   0.001   0.012   0.011   0.027     0.1     0.1     0.3     0.0      26    0.00    0.03    0.00    0.03     0.0     0.0     0.0     0.0     0.0     0.0     0.0     0.0     0.0     0.0      0.      0.      0.      1.      1.      1.      1.      1.      2.      2.     0.0     0.0     0.0     0.0     0.0     0.0     0.0     0.0     0.0     0.0     0.0     0.0     0.0     0.0     0.0     0.0     0.0     0.0     0.0     0.0     0.0     0.0     0.0     0.0     0.0     0.0     0.0     0.0     0.0     0.0
   16 353    56    0.00    0.00    0.01    0.01    12.0   0.001   0.012   0.011   0.027     0.1     0.1     0.3     0.0      25    0.00    0.02    0.00    0.03     0.0     0.0     0.0     0.0     0.0     0.0     0.0     0.0     0.0     0.0      0.      0.      0.      1.      1.      1.      1.      1.      2.      2.     0.0     0.0     0.0     0.0     0.0     0.0     0.0     0.0     0.0     0.0     0.0     0.0     0.0     0.0     0.0     0.0     0.0     0.0     0.0     0.0     0.0     0.0     0.0     0.0     0.0     0.0     0.0     0.0     0.0     0.0
   16 354    57    0.00    0.00    0.01    0.01    12.0   0.001   0.012   0.011   0.027     0.1     0.1     0.3     0.0      23    0.00    0.02    0.00    0.03     0.0     0.0     0.0     0.0     0.0     0.0     0.0     0.0     0.0     0.0      0.      0.      0.      1.      1.      1.      1.      1.      2.      2.     0.0     0.0     0.0     0.0     0.0     0.0     0.0     0.0     0.0     0.0     0.0     0.0     0.0     0.0     0.0     0.0     0.0     0.0     0.0     0.0     0.0     0.0     0.0     0.0     0.0     0.0     0.0     0.0     0.0     0.0
   16 355    58    0.00    0.00    0.01    0.01    12.0   0.001   0.012   0.011   0.027     0.1     0.2     0.3     0.0      21    0.00    0.02    0.00    0.02     0.0     0.0     0.0     0.0     0.0     0.0     0.0     0.0     0.0     0.0      0.      0.      0.      1.      1.      1.      1.      1.      2.      1.     0.0     0.0     0.0     0.0     0.0     0.0     0.0     0.0     0.0     0.0     0.0     0.0     0.0     0.0     0.0     0.0     0.0     0.0     0.0     0.0     0.0     0.0     0.0     0.0     0.0     0.0     0.0     0.0     0.0     0.0
   16 356    59    0.00    0.00    0.01    0.01    12.0   0.001   0.012   0.011   0.027     0.1     0.2     0.3     0.0      19    0.00    0.02    0.00    0.02     0.0     0.0     0.0     0.0     0.0     0.0     0.0     0.0     0.0     0.0      0.      0.      0.      1.      1.      1.      1.      1.      1.      1.     0.0     0.0     0.0     0.0     0.0     0.0     0.0     0.0     0.0     0.0     0.0     0.0     0.0     0.0     0.0     0.0     0.0     0.0     0.0     0.0     0.0     0.0     0.0     0.0     0.0     0.0     0.0     0.0     0.0     0.0
   16 357    60    0.00    0.00    0.01    0.01    12.1   0.001   0.012   0.011   0.027     0.1     0.2     0.3     0.0      17    0.00    0.02    0.00    0.02     0.0     0.0     0.0     0.0     0.0     0.0     0.0     0.0     0.0     0.0      0.      0.      0.      1.      1.      1.      1.      1.      1.      1.     0.0     0.0     0.0     0.0     0.0     0.0     0.0     0.0     0.0     0.0     0.0     0.0     0.0     0.0     0.0     0.0     0.0     0.0     0.0     0.0     0.0     0.0     0.0     0.0     0.0     0.0     0.0     0.0     0.0     0.0
   16 358    61    0.00    0.00    0.01    0.01    12.1   0.001   0.012   0.011   0.027     0.1     0.2     0.3     0.0      16    0.00    0.02    0.00    0.02     0.0     0.0     0.0     0.0     0.0     0.0     0.0     0.0     0.0     0.0      0.      0.      0.      0.      1.      1.      1.      1.      1.      1.     0.0     0.0     0.0     0.0     0.0     0.0     0.0     0.0     0.0     0.0     0.0     0.0     0.0     0.0     0.0     0.0     0.0     0.0     0.0     0.0     0.0     0.0     0.0     0.0     0.0     0.0     0.0     0.0     0.0     0.0
   16 359    62    0.00    0.00    0.01    0.01    12.1   0.001   0.012   0.011   0.027     0.1     0.2     0.3     0.0      15    0.00    0.01    0.00    0.02     0.0     0.0     0.0     0.0     0.0     0.0     0.0     0.0     0.0     0.0      0.      0.      0.      0.      1.      0.      0.      1.      1.      1.     0.0     0.0     0.0     0.0     0.0     0.0     0.0     0.0     0.0     0.0     0.0     0.0     0.0     0.0     0.0     0.0     0.0     0.0     0.0     0.0     0.0     0.0     0.0     0.0     0.0     0.0     0.0     0.0     0.0     0.0
   16 360    63    0.00    0.00    0.01    0.01    12.1   0.001   0.012   0.011   0.027     0.1     0.2     0.3     0.0      14    0.00    0.01    0.00    0.02     0.0     0.0     0.0     0.0     0.0     0.0     0.0     0.0     0.0     0.0      0.      0.      0.      0.      1.      0.      0.      1.      1.      1.     0.0     0.0     0.0     0.0     0.0     0.0     0.0     0.0     0.0     0.0     0.0     0.0     0.0     0.0     0.0     0.0     0.0     0.0     0.0     0.0     0.0     0.0     0.0     0.0     0.0     0.0     0.0     0.0     0.0     0.0
   16 361    64    0.00    0.00    0.01    0.01    12.1   0.001   0.012   0.011   0.027     0.1     0.2     0.3     0.0      14    0.00    0.01    0.00    0.04     0.0     0.0     0.0     0.0     0.0     0.0     0.0     0.0     0.0     0.0      0.      0.      0.      0.      1.      1.      1.      1.      1.      1.     0.0     0.0     0.0     0.0     0.0     0.0     0.0     0.0     0.0     0.0     0.0     0.0     0.0     0.0     0.0     0.0     0.0     0.0     0.0     0.0     0.0     0.0     0.0     0.0     0.0     0.0     0.0     0.0     0.0     0.0
   16 362    65    0.00    0.00    0.01    0.01    12.1   0.001   0.012   0.011   0.027     0.1     0.2     0.3     0.0      15    0.00    0.01    0.00    0.03     0.0     0.0     0.0     0.0     0.0     0.0     0.0     0.0     0.0     0.0      0.      0.      0.      1.      1.      1.      1.      1.      1.      1.     0.0     0.0     0.0     0.0     0.0     0.0     0.0     0.0     0.0     0.0     0.0     0.0     0.0     0.0     0.0     0.0     0.0     0.0     0.0     0.0     0.0     0.0     0.0     0.0     0.0     0.0     0.0     0.0     0.0     0.0
   16 363    66    0.01    0.00    0.01    0.01    12.1   0.001   0.012   0.011   0.028     0.1     0.2     0.3     0.0      16    0.00    0.02    0.00    0.02     0.0     0.0     0.0     0.0     0.0     0.0     0.0     0.0     0.0     0.0      0.      0.      0.      1.      1.      1.      1.      1.      1.      1.     0.0     0.0     0.0     0.0     0.0     0.0     0.0     0.0     0.0     0.0     0.0     0.0     0.0     0.0     0.0     0.0     0.0     0.0     0.0     0.0     0.0     0.0     0.0     0.0     0.0     0.0     0.0     0.0     0.0     0.0
   16 364    67    0.01    0.00    0.01    0.01    12.2   0.001   0.012   0.011   0.028     0.1     0.2     0.3     0.0      18    0.00    0.02    0.00    0.02     0.0     0.0     0.0     0.0     0.0     0.0     0.0     0.0     0.0     0.0      0.      0.      0.      0.      1.      0.      0.      1.      1.      1.     0.0     0.0     0.0     0.0     0.0     0.0     0.0     0.0     0.0     0.0     0.0     0.0     0.0     0.0     0.0     0.0     0.0     0.0     0.0     0.0     0.0     0.0     0.0     0.0     0.0     0.0     0.0     0.0     0.0     0.0
   16 365    68    0.01    0.00    0.01    0.01    12.2   0.001   0.012   0.011   0.028     0.1     0.2     0.3     0.0      19    0.00    0.02    0.00    0.02     0.0     0.0     0.0     0.0     0.0     0.0     0.0     0.0     0.0     0.0      0.      0.      0.      0.      0.      0.      0.      0.      1.      1.     0.0     0.0     0.0     0.0     0.0     0.0     0.0     0.0     0.0     0.0     0.0     0.0     0.0     0.0     0.0     0.0     0.0     0.0     0.0     0.0     0.0     0.0     0.0     0.0     0.0     0.0     0.0     0.0     0.0     0.0
   16 366    69    0.01    0.00    0.02    0.01    12.2   0.001   0.012   0.011   0.028     0.2     0.2     0.3     0.0      18    0.00    0.02    0.00    0.02     0.0     0.0     0.0     0.0     0.0     0.0     0.0     0.0     0.0     0.0      0.      0.      0.      0.      0.      0.      0.      0.      1.      1.     0.0     0.0     0.0     0.0     0.0     0.0     0.0     0.0     0.0     0.0     0.0     0.0     0.0     0.0     0.0     0.0     0.0     0.0     0.0     0.0     0.0     0.0     0.0     0.0     0.0     0.0     0.0     0.0     0.0     0.0
   17 001    70    0.01    0.00    0.02    0.01    12.2   0.001   0.012   0.011   0.028     0.2     0.2     0.3     0.0      16    0.00    0.02    0.00    0.02     0.0     0.0     0.0     0.0     0.0     0.0     0.0     0.0     0.0     0.0      0.      0.      0.      0.      0.      0.      0.      0.      1.      1.     0.0     0.0     0.0     0.0     0.0     0.0     0.0     0.0     0.0     0.0     0.0     0.0     0.0     0.0     0.0     0.0     0.0     0.0     0.0     0.0     0.0     0.0     0.0     0.0     0.0     0.0     0.0     0.0     0.0     0.0
   17 002    71    0.01    0.00    0.02    0.01    12.2   0.001   0.012   0.011   0.028     0.2     0.2     0.3     0.0      13    0.00    0.01    0.00    0.00     0.0     0.0     0.0     0.0     0.0     0.0     0.0     0.0     0.0     0.0      0.      0.      0.      0.      0.      0.      0.      0.      1.      1.     0.0     0.0     0.0     0.0     0.0     0.0     0.0     0.0     0.0     0.0     0.0     0.0     0.0     0.0     0.0     0.0     0.0     0.0     0.0     0.0     0.0     0.0     0.0     0.0     0.0     0.0     0.0     0.0     0.0     0.0
   17 003    72    0.01    0.00    0.02    0.01    12.2   0.001   0.012   0.011   0.028     0.2     0.2     0.3     0.0      12    0.00    0.01    0.00    0.01     0.0     0.0     0.0     0.0     0.0     0.0     0.0     0.0     0.0     0.0      0.      0.      0.      0.      0.      0.      0.      0.      0.      1.     0.0     0.0     0.0     0.0     0.0     0.0     0.0     0.0     0.0     0.0     0.0     0.0     0.0     0.0     0.0     0.0     0.0     0.0     0.0     0.0     0.0     0.0     0.0     0.0     0.0     0.0     0.0     0.0     0.0     0.0
   17 004    73    0.01    0.00    0.02    0.01    12.2   0.001   0.012   0.011   0.028     0.2     0.2     0.3     0.0      11    0.00    0.01    0.00    0.01     0.0     0.0     0.0     0.0     0.0     0.0     0.0     0.0     0.0     0.0      0.      0.      0.      0.      0.      0.      0.      0.      0.      1.     0.0     0.0     0.0     0.0     0.0     0.0     0.0     0.0     0.0     0.0     0.0     0.0     0.0     0.0     0.0     0.0     0.0     0.0     0.0     0.0     0.0     0.0     0.0     0.0     0.0     0.0     0.0     0.0     0.0     0.0
   17 005    74    0.01    0.01    0.02    0.01    12.3   0.001   0.012   0.011   0.028     0.2     0.2     0.3     0.0      10    0.00    0.01    0.00    0.01     0.0     0.0     0.0     0.0     0.0     0.0     0.0     0.0     0.0     0.0      0.      0.      0.      0.      0.      0.      0.      0.      0.      1.     0.0     0.0     0.0     0.0     0.0     0.0     0.0     0.0     0.0     0.0     0.0     0.0     0.0     0.0     0.0     0.0     0.0     0.0     0.0     0.0     0.0     0.0     0.0     0.0     0.0     0.0     0.0     0.0     0.0     0.0
   17 006    75    0.01    0.01    0.02    0.01    12.3   0.001   0.012   0.011   0.028     0.2     0.2     0.3     0.0       9    0.00    0.01    0.00    0.00     0.0     0.0     0.0     0.0     0.0     0.0     0.0     0.0     0.0     0.0      0.      0.      0.      0.      0.      0.      0.      0.      0.      0.     0.0     0.0     0.0     0.0     0.0     0.0     0.0     0.0     0.0     0.0     0.0     0.0     0.0     0.0     0.0     0.0     0.0     0.0     0.0     0.0     0.0     0.0     0.0     0.0     0.0     0.0     0.0     0.0     0.0     0.0
   17 007    76    0.01    0.01    0.02    0.01    12.3   0.001   0.012   0.011   0.028     0.2     0.2     0.3     0.0       8    0.00    0.01    0.00    0.00     0.0     0.0     0.0     0.0     0.0     0.0     0.0     0.0     0.0     0.0      0.      0.      0.      0.      0.      0.      0.      0.      0.      0.     0.0     0.0     0.0     0.0     0.0     0.0     0.0     0.0     0.0     0.0     0.0     0.0     0.0     0.0     0.0     0.0     0.0     0.0     0.0     0.0     0.0     0.0     0.0     0.0     0.0     0.0     0.0     0.0     0.0     0.0
   17 008    77    0.01    0.01    0.02    0.01    12.3   0.001   0.012   0.011   0.028     0.2     0.2     0.3     0.0       7    0.00    0.01    0.00    0.01     0.0     0.0     0.0     0.0     0.0     0.0     0.0     0.0     0.0     0.0      0.      0.      0.      0.      0.      0.      0.      0.      0.      0.     0.0     0.0     0.0     0.0     0.0     0.0     0.0     0.0     0.0     0.0     0.0     0.0     0.0     0.0     0.0     0.0     0.0     0.0     0.0     0.0     0.0     0.0     0.0     0.0     0.0     0.0     0.0     0.0     0.0     0.0
   17 009    78    0.01    0.01    0.02    0.01    12.3   0.001   0.012   0.011   0.028     0.2     0.2     0.3     0.0       6    0.00    0.01    0.00    0.01     0.0     0.0     0.0     0.0     0.0     0.0     0.0     0.0     0.0     0.0      0.      0.      0.      0.      0.      0.      0.      0.      0.      0.     0.0     0.0     0.0     0.0     0.0     0.0     0.0     0.0     0.0     0.0     0.0     0.0     0.0     0.0     0.0     0.0     0.0     0.0     0.0     0.0     0.0     0.0     0.0     0.0     0.0     0.0     0.0     0.0     0.0     0.0
   17 010    79    0.01    0.01    0.02    0.01    12.3   0.001   0.012   0.011   0.028     0.1     0.2     0.3     0.0       6    0.00    0.01    0.00    0.01     0.0     0.0     0.0     0.0     0.0     0.0     0.0     0.0     0.0     0.0      0.      0.      0.      0.      0.      0.      0.      0.      0.      0.     0.0     0.0     0.0     0.0     0.0     0.0     0.0     0.0     0.0     0.0     0.0     0.0     0.0     0.0     0.0     0.0     0.0     0.0     0.0     0.0     0.0     0.0     0.0     0.0     0.0     0.0     0.0     0.0     0.0     0.0
   17 011    80    0.01    0.01    0.02    0.01    12.3   0.001   0.012   0.011   0.028     0.1     0.2     0.3     0.0       5    0.00    0.01    0.00    0.01     0.0     0.0     0.0     0.0     0.0     0.0     0.0     0.0     0.0     0.0      0.      0.      0.      0.      0.      0.      0.      0.      0.      0.     0.0     0.0     0.0     0.0     0.0     0.0     0.0     0.0     0.0     0.0     0.0     0.0     0.0     0.0     0.0     0.0     0.0     0.0     0.0     0.0     0.0     0.0     0.0     0.0     0.0     0.0     0.0     0.0     0.0     0.0
   17 012    81    0.01    0.01    0.02    0.01    12.3   0.001   0.012   0.011   0.028     0.1     0.2     0.3     0.0       6    0.00    0.01    0.00    0.01     0.0     0.0     0.0     0.0     0.0     0.0     0.0     0.0     0.0     0.0      0.      0.      0.      0.      0.      0.      0.      0.      0.      0.     0.0     0.0     0.0     0.0     0.0     0.0     0.0     0.0     0.0     0.0     0.0     0.0     0.0     0.0     0.0     0.0     0.0     0.0     0.0     0.0     0.0     0.0     0.0     0.0     0.0     0.0     0.0     0.0     0.0     0.0
   17 013    82    0.01    0.01    0.02    0.01    12.3   0.001   0.012   0.011   0.028     0.0     0.1     0.1     0.0       6    0.00    0.01    0.00    0.01     0.0     0.0     0.0     0.0     0.0     0.0     0.0     0.0     0.0     0.0      0.      0.      0.      0.      0.      0.      0.      0.      0.      0.     0.0     0.0     0.0     0.0     0.0     0.0     0.0     0.0     0.0     0.0     0.0     0.0     0.0     0.0     0.0     0.0     0.0     0.0     0.0     0.0     0.0     0.0     0.0     0.0     0.0     0.0     0.0     0.0     0.0     0.0
   17 014    83    0.01    0.01    0.02    0.01    12.3   0.001   0.012   0.011   0.028     0.1     0.1     0.2     0.0       6    0.00    0.01    0.00    0.01     0.0     0.0     0.0     0.0     0.0     0.0     0.0     0.0     0.0     0.0      0.      0.      0.      0.      0.      0.      0.      0.      0.      0.     0.0     0.0     0.0     0.0     0.0     0.0     0.0     0.0     0.0     0.0     0.0     0.0     0.0     0.0     0.0     0.0     0.0     0.0     0.0     0.0     0.0     0.0     0.0     0.0     0.0     0.0     0.0     0.0     0.0     0.0
   17 015    84    0.01    0.01    0.02    0.01    12.3   0.001   0.012   0.011   0.028     0.1     0.1     0.2     0.0       5    0.00    0.01    0.00    0.01     0.0     0.0     0.0     0.0     0.0     0.0     0.0     0.0     0.0     0.0      0.      0.      0.      0.      0.      0.      0.      0.      0.      0.     0.0     0.0     0.0     0.0     0.0     0.0     0.0     0.0     0.0     0.0     0.0     0.0     0.0     0.0     0.0     0.0     0.0     0.0     0.0     0.0     0.0     0.0     0.0     0.0     0.0     0.0     0.0     0.0     0.0     0.0
   17 016    85    0.01    0.01    0.02    0.01    12.3   0.001   0.012   0.011   0.028     0.1     0.2     0.2     0.0       5    0.00    0.01    0.00    0.01     0.0     0.0     0.0     0.0     0.0     0.0     0.0     0.0     0.0     0.0      0.      0.      0.      0.      0.      0.      0.      0.      0.      0.     0.0     0.0     0.0     0.0     0.0     0.0     0.0     0.0     0.0     0.0     0.0     0.0     0.0     0.0     0.0     0.0     0.0     0.0     0.0     0.0     0.0     0.0     0.0     0.0     0.0     0.0     0.0     0.0     0.0     0.0
   17 017    86    0.01    0.01    0.02    0.01    12.3   0.001   0.012   0.011   0.028     0.2     0.2     0.3     0.0       5    0.00    0.00    0.00    0.01     0.0     0.0     0.0     0.0     0.0     0.0     0.0     0.0     0.0     0.0      0.      0.      0.      0.      0.      0.      0.      0.      0.      0.     0.0     0.0     0.0     0.0     0.0     0.0     0.0     0.0     0.0     0.0     0.0     0.0     0.0     0.0     0.0     0.0     0.0     0.0     0.0     0.0     0.0     0.0     0.0     0.0     0.0     0.0     0.0     0.0     0.0     0.0
   17 018    87    0.01    0.01    0.02    0.01    12.3   0.001   0.012   0.011   0.028     0.2     0.2     0.3     0.0       4    0.00    0.00    0.00    0.00     0.0     0.0     0.0     0.0     0.0     0.0     0.0     0.0     0.0     0.0      0.      0.      0.      0.      0.      0.      0.      0.      0.      0.     0.0     0.0     0.0     0.0     0.0     0.0     0.0     0.0     0.0     0.0     0.0     0.0     0.0     0.0     0.0     0.0     0.0     0.0     0.0     0.0     0.0     0.0     0.0     0.0     0.0     0.0     0.0     0.0     0.0     0.0
   17 019    88    0.01    0.01    0.02    0.01    12.3   0.001   0.012   0.011   0.028     0.2     0.2     0.3     0.0       3    0.00    0.00    0.00    0.00     0.0     0.0     0.0     0.0     0.0     0.0     0.0     0.0     0.0     0.0      0.      0.      0.      0.      0.      0.      0.      0.      0.      0.     0.0     0.0     0.0     0.0     0.0     0.0     0.0     0.0     0.0     0.0     0.0     0.0     0.0     0.0     0.0     0.0     0.0     0.0     0.0     0.0     0.0     0.0     0.0     0.0     0.0     0.0     0.0     0.0     0.0     0.0
   17 020    89    0.01    0.01    0.02    0.01    12.3   0.001   0.012   0.011   0.028     0.1     0.2     0.2     0.0       3    0.00    0.00    0.00    0.00     0.0     0.0     0.0     0.0     0.0     0.0     0.0     0.0     0.0     0.0      0.      0.      0.      0.      0.      0.      0.      0.      0.      0.     0.0     0.0     0.0     0.0     0.0     0.0     0.0     0.0     0.0     0.0     0.0     0.0     0.0     0.0     0.0     0.0     0.0     0.0     0.0     0.0     0.0     0.0     0.0     0.0     0.0     0.0     0.0     0.0     0.0     0.0
   17 021    90    0.01    0.01    0.02    0.01    12.3   0.001   0.012   0.011   0.028     0.1     0.2     0.2     0.0       3    0.00    0.00    0.00    0.00     0.0     0.0     0.0     0.0     0.0     0.0     0.0     0.0     0.0     0.0      0.      0.      0.      0.      0.      0.      0.      0.      0.      0.     0.0     0.0     0.0     0.0     0.0     0.0     0.0     0.0     0.0     0.0     0.0     0.0     0.0     0.0     0.0     0.0     0.0     0.0     0.0     0.0     0.0     0.0     0.0     0.0     0.0     0.0     0.0     0.0     0.0     0.0
   17 022    91    0.01    0.01    0.02    0.01    12.3   0.001   0.012   0.011   0.028     0.1     0.1     0.2     0.0       2    0.00    0.00    0.00    0.00     0.0     0.0     0.0     0.0     0.0     0.0     0.0     0.0     0.0     0.0      0.      0.      0.      0.      0.      0.      0.      0.      0.      0.     0.0     0.0     0.0     0.0     0.0     0.0     0.0     0.0     0.0     0.0     0.0     0.0     0.0     0.0     0.0     0.0     0.0     0.0     0.0     0.0     0.0     0.0     0.0     0.0     0.0     0.0     0.0     0.0     0.0     0.0
   17 023    92    0.01    0.01    0.02    0.01    12.3   0.001   0.012   0.011   0.028     0.1     0.1     0.2     0.0       2    0.00    0.00    0.00    0.00     0.0     0.0     0.0     0.0     0.0     0.0     0.0     0.0     0.0     0.0      0.      0.      0.      0.      0.      0.      0.      0.      0.      0.     0.0     0.0     0.0     0.0     0.0     0.0     0.0     0.0     0.0     0.0     0.0     0.0     0.0     0.0     0.0     0.0     0.0     0.0     0.0     0.0     0.0     0.0     0.0     0.0     0.0     0.0     0.0     0.0     0.0     0.0
   17 024    93    0.01    0.01    0.02    0.01    12.3   0.001   0.012   0.011   0.028     0.1     0.1     0.2     0.0       2    0.00    0.00    0.00    0.00     0.0     0.0     0.0     0.0     0.0     0.0     0.0     0.0     0.0     0.0      0.      0.      0.      0.      0.      0.      0.      0.      0.      0.     0.0     0.0     0.0     0.0     0.0     0.0     0.0     0.0     0.0     0.0     0.0     0.0     0.0     0.0     0.0     0.0     0.0     0.0     0.0     0.0     0.0     0.0     0.0     0.0     0.0     0.0     0.0     0.0     0.0     0.0
   17 025    94    0.01    0.01    0.02    0.01    12.4   0.001   0.012   0.011   0.028     0.1     0.1     0.2     0.0       2    0.00    0.00    0.00    0.00     0.0     0.0     0.0     0.0     0.0     0.0     0.0     0.0     0.0     0.0      0.      0.      0.      0.      0.      0.      0.      0.      0.      0.     0.0     0.0     0.0     0.0     0.0     0.0     0.0     0.0     0.0     0.0     0.0     0.0     0.0     0.0     0.0     0.0     0.0     0.0     0.0     0.0     0.0     0.0     0.0     0.0     0.0     0.0     0.0     0.0     0.0     0.0
   17 026    95    0.01    0.01    0.02    0.01    12.4   0.001   0.012   0.011   0.028     0.1     0.1     0.2     0.0       2    0.00    0.00    0.00    0.00     0.0     0.0     0.0     0.0     0.0     0.0     0.0     0.0     0.0     0.0      0.      0.      0.      0.      0.      0.      0.      0.      0.      0.     0.0     0.0     0.0     0.0     0.0     0.0     0.0     0.0     0.0     0.0     0.0     0.0     0.0     0.0     0.0     0.0     0.0     0.0     0.0     0.0     0.0     0.0     0.0     0.0     0.0     0.0     0.0     0.0     0.0     0.0
   17 027    96    0.01    0.01    0.02    0.01    12.4   0.001   0.012   0.011   0.028     0.1     0.1     0.2     0.0       2    0.00    0.00    0.00    0.00     0.0     0.0     0.0     0.0     0.0     0.0     0.0     0.0     0.0     0.0      0.      0.      0.      0.      0.      0.      0.      0.      0.      0.     0.0     0.0     0.0     0.0     0.0     0.0     0.0     0.0     0.0     0.0     0.0     0.0     0.0     0.0     0.0     0.0     0.0     0.0     0.0     0.0     0.0     0.0     0.0     0.0     0.0     0.0     0.0     0.0     0.0     0.0
   17 028    97    0.01    0.01    0.02    0.01    12.4   0.001   0.012   0.011   0.028     0.1     0.1     0.2     0.0       2    0.00    0.00    0.00    0.00     0.0     0.0     0.0     0.0     0.0     0.0     0.0     0.0     0.0     0.0      0.      0.      0.      0.      0.      0.      0.      0.      0.      0.     0.0     0.0     0.0     0.0     0.0     0.0     0.0     0.0     0.0     0.0     0.0     0.0     0.0     0.0     0.0     0.0     0.0     0.0     0.0     0.0     0.0     0.0     0.0     0.0     0.0     0.0     0.0     0.0     0.0     0.0
   17 029    98    0.01    0.01    0.02    0.01    12.4   0.001   0.012   0.011   0.028     0.1     0.1     0.2     0.0       2    0.00    0.00    0.00    0.00     0.0     0.0     0.0     0.0     0.0     0.0     0.0     0.0     0.0     0.0      0.      0.      0.      0.      0.      0.      0.      0.      0.      0.     0.0     0.0     0.0     0.0     0.0     0.0     0.0     0.0     0.0     0.0     0.0     0.0     0.0     0.0     0.0     0.0     0.0     0.0     0.0     0.0     0.0     0.0     0.0     0.0     0.0     0.0     0.0     0.0     0.0     0.0
   17 030    99    0.01    0.01    0.02    0.01    12.4   0.001   0.012   0.011   0.028     0.1     0.1     0.2     0.0       2    0.00    0.00    0.00    0.00     0.0     0.0     0.0     0.0     0.0     0.0     0.0     0.0     0.0     0.0      0.      0.      0.      0.      0.      0.      0.      0.      0.      0.     0.0     0.0     0.0     0.0     0.0     0.0     0.0     0.0     0.0     0.0     0.0     0.0     0.0     0.0     0.0     0.0     0.0     0.0     0.0     0.0     0.0     0.0     0.0     0.0     0.0     0.0     0.0     0.0     0.0     0.0
   17 031   100    0.01    0.01    0.02    0.01    12.4   0.001   0.012   0.011   0.028     0.1     0.1     0.2     0.0       2    0.00    0.00    0.00    0.00     0.0     0.0     0.0     0.0     0.0     0.0     0.0     0.0     0.0     0.0      0.      0.      0.      0.      0.      0.      0.      0.      0.      0.     0.0     0.0     0.0     0.0     0.0     0.0     0.0     0.0     0.0     0.0     0.0     0.0     0.0     0.0     0.0     0.0     0.0     0.0     0.0     0.0     0.0     0.0     0.0     0.0     0.0     0.0     0.0     0.0     0.0     0.0
   17 032   101    0.01    0.01    0.02    0.01    12.4   0.001   0.012   0.011   0.028     0.1     0.1     0.1     0.0       2    0.00    0.00    0.00    0.00     0.0     0.0     0.0     0.0     0.0     0.0     0.0     0.0     0.0     0.0      0.      0.      0.      0.      0.      0.      0.      0.      0.      0.     0.0     0.0     0.0     0.0     0.0     0.0     0.0     0.0     0.0     0.0     0.0     0.0     0.0     0.0     0.0     0.0     0.0     0.0     0.0     0.0     0.0     0.0     0.0     0.0     0.0     0.0     0.0     0.0     0.0     0.0
   17 033   102    0.01    0.01    0.02    0.01    12.4   0.001   0.012   0.011   0.028     0.1     0.1     0.1     0.0       2    0.00    0.00    0.00    0.00     0.0     0.0     0.0     0.0     0.0     0.0     0.0     0.0     0.0     0.0      0.      0.      0.      0.      0.      0.      0.      0.      0.      0.     0.0     0.0     0.0     0.0     0.0     0.0     0.0     0.0     0.0     0.0     0.0     0.0     0.0     0.0     0.0     0.0     0.0     0.0     0.0     0.0     0.0     0.0     0.0     0.0     0.0     0.0     0.0     0.0     0.0     0.0
   17 034   103    0.01    0.01    0.02    0.01    12.4   0.001   0.012   0.011   0.028     0.1     0.1     0.2     0.0       2    0.00    0.00    0.00    0.00     0.0     0.0     0.0     0.0     0.0     0.0     0.0     0.0     0.0     0.0      0.      0.      0.      0.      0.      0.      0.      0.      0.      0.     0.0     0.0     0.0     0.0     0.0     0.0     0.0     0.0     0.0     0.0     0.0     0.0     0.0     0.0     0.0     0.0     0.0     0.0     0.0     0.0     0.0     0.0     0.0     0.0     0.0     0.0     0.0     0.0     0.0     0.0
   17 035   104    0.01    0.01    0.02    0.01    12.4   0.001   0.012   0.011   0.028     0.1     0.1     0.2     0.0       2    0.00    0.00    0.00    0.00     0.0     0.0     0.0     0.0     0.0     0.0     0.0     0.0     0.0     0.0      0.      0.      0.      0.      0.      0.      0.      0.      0.      0.     0.0     0.0     0.0     0.0     0.0     0.0     0.0     0.0     0.0     0.0     0.0     0.0     0.0     0.0     0.0     0.0     0.0     0.0     0.0     0.0     0.0     0.0     0.0     0.0     0.0     0.0     0.0     0.0     0.0     0.0
   17 036   105    0.01    0.01    0.02    0.01    13.0   0.001   0.013   0.011   0.030     0.2     0.1     0.6     0.0     628    0.00    0.63    0.00    2.50     0.0     0.0     0.0     0.0     0.0     0.0     0.0     0.0     0.0     0.0    626.      0.      0.      0.      0.      0.      0.      0.      0.      0.     0.6     0.0     0.0     0.0     0.0     0.0     0.0     0.0     0.0     0.0     0.0     0.0     0.0     0.0     0.0     0.0     0.0     0.0     0.0     0.0     2.5     0.0     0.0     0.0     0.0     0.0     0.0     0.0     0.0     0.0
   17 037   106    0.01    0.01    0.03    0.01    14.1   0.001   0.014   0.011   0.035     0.4     0.1     1.4     0.0    1087    0.00    1.09    0.00    4.34     0.0     0.0     0.0     0.0     0.0     0.0     0.0     0.0     0.0     0.0   1085.      0.      0.      0.      0.      0.      0.      0.      0.      0.     1.1     0.0     0.0     0.0     0.0     0.0     0.0     0.0     0.0     0.0     0.0     0.0     0.0     0.0     0.0     0.0     0.0     0.0     0.0     0.0     4.3     0.0     0.0     0.0     0.0     0.0     0.0     0.0     0.0     0.0
   17 038   107    0.01    0.01    0.03    0.01    15.4   0.001   0.015   0.011   0.040     0.6     0.1     2.1     0.0    1326    0.00    1.33    0.00    5.29     0.0     0.0     0.0     0.0     0.0     0.0     0.0     0.0     0.0     0.0   1324.      0.      0.      0.      0.      0.      0.      0.      0.      0.     1.3     0.0     0.0     0.0     0.0     0.0     0.0     0.0     0.0     0.0     0.0     0.0     0.0     0.0     0.0     0.0     0.0     0.0     0.0     0.0     5.3     0.0     0.0     0.0     0.0     0.0     0.0     0.0     0.0     0.0
   17 039   108    0.01    0.01    0.03    0.01    16.9   0.001   0.017   0.011   0.046     0.8     0.1     2.8     0.0    1475    0.00    1.48    0.00    5.90     0.0     0.0     0.0     0.0     0.0     0.0     0.0     0.0     0.0     0.0   1474.      0.      0.      0.      0.      0.      0.      0.      0.      0.     1.5     0.0     0.0     0.0     0.0     0.0     0.0     0.0     0.0     0.0     0.0     0.0     0.0     0.0     0.0     0.0     0.0     0.0     0.0     0.0     5.9     0.0     0.0     0.0     0.0     0.0     0.0     0.0     0.0     0.0
   17 040   109    0.01    0.01    0.03    0.01    18.4   0.001   0.018   0.011   0.052     0.9     0.1     3.5     0.0    1511    0.00    1.51    0.00    6.05     0.0     0.0     0.0     0.0     0.0     0.0     0.0     0.0     0.0     0.0   1509.      0.      0.      0.      0.      0.      0.      0.      0.      0.     1.5     0.0     0.0     0.0     0.0     0.0     0.0     0.0     0.0     0.0     0.0     0.0     0.0     0.0     0.0     0.0     0.0     0.0     0.0     0.0     6.1     0.0     0.0     0.0     0.0     0.0     0.0     0.0     0.0     0.0
   17 041   110    0.01    0.01    0.04    0.01    19.8   0.001   0.020   0.011   0.058     1.0     0.1     3.9     0.0    1443    0.00    1.44    0.00    5.79     0.0     0.0     0.0     0.0     0.0     0.0     0.0     0.0     0.0     0.0   1441.      0.      0.      0.      0.      0.      0.      0.      0.      0.     1.4     0.0     0.0     0.0     0.0     0.0     0.0     0.0     0.0     0.0     0.0     0.0     0.0     0.0     0.0     0.0     0.0     0.0     0.0     0.0     5.8     0.0     0.0     0.0     0.0     0.0     0.0     0.0     0.0     0.0
   17 042   111    0.02    0.01    0.04    0.01    21.1   0.001   0.021   0.011   0.063     1.1     0.1     4.2     0.0    1306    0.00    1.31    0.00    5.25     0.0     0.0     0.0     0.0     0.0     0.0     0.0     0.0     0.0     0.0   1305.      0.      0.      0.      0.      0.      0.      0.      0.      0.     1.3     0.0     0.0     0.0     0.0     0.0     0.0     0.0     0.0     0.0     0.0     0.0     0.0     0.0     0.0     0.0     0.0     0.0     0.0     0.0     5.2     0.0     0.0     0.0     0.0     0.0     0.0     0.0     0.0     0.0
   17 043   112    0.02    0.01    0.05    0.01    22.4   0.001   0.022   0.011   0.068     1.1     0.1     4.4     0.0    1228    0.00    1.23    0.00    5.00     0.0     0.0     0.0     0.0     0.0     0.0     0.0     0.0     0.0     0.0   1226.      0.      0.      0.      0.      0.      0.      0.      0.      0.     1.2     0.0     0.0     0.0     0.0     0.0     0.0     0.0     0.0     0.0     0.0     0.0     0.0     0.0     0.0     0.0     0.0     0.0     0.0     0.0     5.0     0.0     0.0     0.0     0.0     0.0     0.0     0.0     0.0     0.0
   17 044   113    0.02    0.01    0.05    0.01    23.5   0.001   0.024   0.011   0.072     1.2     0.1     4.5     0.0    1136    0.00    1.14    0.00    4.64     0.0     0.0     0.0     0.0     0.0     0.0     0.0     0.0     0.0     0.0   1135.      0.      0.      0.      0.      0.      0.      0.      0.      0.     1.1     0.0     0.0     0.0     0.0     0.0     0.0     0.0     0.0     0.0     0.0     0.0     0.0     0.0     0.0     0.0     0.0     0.0     0.0     0.0     4.6     0.0     0.0     0.0     0.0     0.0     0.0     0.0     0.0     0.0
   17 045   114    0.02    0.01    0.05    0.01    24.6   0.001   0.025   0.011   0.077     1.2     0.1     4.5     0.0    1131    0.00    1.13    0.00    4.67     0.0     0.0     0.0     0.0     0.0     0.0     0.0     0.0     0.0     0.0   1130.      0.      0.      0.      0.      0.      0.      0.      0.      0.     1.1     0.0     0.0     0.0     0.0     0.0     0.0     0.0     0.0     0.0     0.0     0.0     0.0     0.0     0.0     0.0     0.0     0.0     0.0     0.0     4.7     0.0     0.0     0.0     0.0     0.0     0.0     0.0     0.0     0.0
   17 046   115    0.02    0.01    0.06    0.01    25.8   0.001   0.026   0.011   0.082     1.2     0.1     4.6     0.0    1131    0.00    1.13    0.00    4.81     0.0     0.0     0.0     0.0     0.0     0.0     0.0     0.0     0.0     0.0   1130.      0.      0.      0.      0.      0.      0.      0.      0.      0.     1.1     0.0     0.0     0.0     0.0     0.0     0.0     0.0     0.0     0.0     0.0     0.0     0.0     0.0     0.0     0.0     0.0     0.0     0.0     0.0     4.8     0.0     0.0     0.0     0.0     0.0     0.0     0.0     0.0     0.0
   17 047   116    0.02    0.01    0.07    0.01    26.9   0.001   0.027   0.011   0.101     1.2     0.0     7.5     0.0    1156    0.00    1.16    0.00   19.10     0.0     0.0     0.0     0.0     0.0     0.0     0.0     0.0     0.0     0.0   1155.      0.      0.      0.      0.      0.      0.      0.      0.      0.     1.2     0.0     0.0     0.0     0.0     0.0     0.0     0.0     0.0     0.0     0.0     0.0     0.0     0.0     0.0     0.0     0.0     0.0     0.0     0.0    19.1     0.0     0.0     0.0     0.0     0.0     0.0     0.0     0.0     0.0
   17 048   117    0.02    0.01    0.08    0.01    28.1   0.001   0.028   0.011   0.116     1.2     0.0     8.8     0.0    1213    0.00    1.21    0.00   15.23     0.0     0.0     0.0     0.0     0.0     0.0     0.0     0.0     0.0     0.0   1212.      0.      0.      0.      0.      0.      0.      0.      0.      0.     1.2     0.0     0.0     0.0     0.0     0.0     0.0     0.0     0.0     0.0     0.0     0.0     0.0     0.0     0.0     0.0     0.0     0.0     0.0     0.0    15.2     0.0     0.0     0.0     0.0     0.0     0.0     0.0     0.0     0.0
   17 049   118    0.02    0.01    0.08    0.01    29.3   0.001   0.029   0.011   0.127     1.1     0.0     8.7     0.0    1192    0.00    1.19    0.00   10.35     0.0     0.0     0.0     0.0     0.0     0.0     0.0     0.0     0.0     0.0   1191.      0.      0.      0.      0.      0.      0.      0.      0.      0.     1.2     0.0     0.0     0.0     0.0     0.0     0.0     0.0     0.0     0.0     0.0     0.0     0.0     0.0     0.0     0.0     0.0     0.0     0.0     0.0    10.3     0.0     0.0     0.0     0.0     0.0     0.0     0.0     0.0     0.0
   17 050   119    0.02    0.01    0.09    0.01    30.5   0.001   0.030   0.011   0.136     1.2     0.0     9.4     0.0    1135    0.00    1.13    0.00    9.57     0.0     0.0     0.0     0.0     0.0     0.0     0.0     0.0     0.0     0.0   1134.      1.      0.      0.      0.      0.      0.      0.      0.      0.     1.1     0.0     0.0     0.0     0.0     0.0     0.0     0.0     0.0     0.0     0.0     0.0     0.0     0.0     0.0     0.0     0.0     0.0     0.0     0.0     9.6     0.0     0.0     0.0     0.0     0.0     0.0     0.0     0.0     0.0
   17 051   120    0.03    0.01    0.10    0.01    31.5   0.001   0.032   0.011   0.143     1.2     0.0     9.0     0.0    1064    0.00    1.06    0.00    7.29     0.0     0.0     0.0     0.0     0.0     0.0     0.0     0.0     0.0     0.0   1062.      1.      0.      0.      0.      0.      0.      0.      0.      0.     1.1     0.0     0.0     0.0     0.0     0.0     0.0     0.0     0.0     0.0     0.0     0.0     0.0     0.0     0.0     0.0     0.0     0.0     0.0     0.0     7.3     0.0     0.0     0.0     0.0     0.0     0.0     0.0     0.0     0.0
   17 052   121    0.03    0.01    0.11    0.01    32.6   0.001   0.033   0.011   0.149     1.2     0.0     8.4     0.0    1065    0.00    1.06    0.00    5.92     0.0     0.0     0.0     0.0     0.0     0.0     0.0     0.0     0.0     0.0   1063.      1.      0.      0.      0.      0.      0.      0.      0.      0.     1.1     0.0     0.0     0.0     0.0     0.0     0.0     0.0     0.0     0.0     0.0     0.0     0.0     0.0     0.0     0.0     0.0     0.0     0.0     0.0     5.9     0.0     0.0     0.0     0.0     0.0     0.0     0.0     0.0     0.0
   17 053   122    0.03    0.01    0.12    0.01    33.4   0.001   0.033   0.011   0.150     0.6     0.0     3.8     0.0     762    0.00    0.76    0.00    0.70     0.0     0.0     0.0     0.0     0.0     0.0     0.0     0.0     0.0     0.0    760.      2.      0.      0.      0.      0.      0.      0.      0.      0.     0.8     0.0     0.0     0.0     0.0     0.0     0.0     0.0     0.0     0.0     0.0     0.0     0.0     0.0     0.0     0.0     0.0     0.0     0.0     0.0     0.7     0.0     0.0     0.0     0.0     0.0     0.0     0.0     0.0     0.0
   17 054   123    0.03    0.01    0.12    0.01    34.4   0.001   0.034   0.011   0.152     0.9     0.0     5.1     0.0    1014    0.00    1.01    0.00    1.88     0.0     0.0     0.0     0.0     0.0     0.0     0.0     0.0     0.0     0.0   1011.      2.      0.      0.      0.      0.      0.      0.      0.      0.     1.0     0.0     0.0     0.0     0.0     0.0     0.0     0.0     0.0     0.0     0.0     0.0     0.0     0.0     0.0     0.0     0.0     0.0     0.0     0.0     1.9     0.0     0.0     0.0     0.0     0.0     0.0     0.0     0.0     0.0
   17 055   124    0.03    0.01    0.13    0.01    35.6   0.001   0.036   0.011   0.156     1.2     0.0     6.1     0.0    1213    0.00    1.21    0.00    4.26     0.0     0.0     0.0     0.0     0.0     0.0     0.0     0.0     0.0     0.0   1206.      3.      0.      0.      0.      0.      0.      0.      0.      0.     1.2     0.0     0.0     0.0     0.0     0.0     0.0     0.0     0.0     0.0     0.0     0.0     0.0     0.0     0.0     0.0     0.0     0.0     0.0     0.0     4.2     0.0     0.0     0.0     0.0     0.0     0.0     0.0     0.0     0.0
   17 056   125    0.03    0.01    0.13    0.01    36.7   0.001   0.037   0.011   0.161     1.3     0.0     6.2     0.0    1162    0.00    1.16    0.00    4.85     0.0     0.0     0.0     0.0     0.0     0.0     0.0     0.0     0.0     0.0   1152.      0.      0.      0.      0.      0.      0.      0.      1.      1.     1.2     0.0     0.0     0.0     0.0     0.0     0.0     0.0     0.0     0.0     0.0     0.0     0.0     0.0     0.0     0.0     0.0     0.0     0.0     0.0     4.8     0.0     0.0     0.0     0.0     0.0     0.0     0.0     0.0     0.0
   17 057   126    0.03    0.01    0.14    0.01    37.7   0.001   0.038   0.011   0.165     1.2     0.0     5.9     0.0     999    0.00    1.00    0.00    4.15     0.0     0.0     0.0     0.0     0.0     0.0     0.0     0.0     0.0     0.0    980.      0.      1.      1.      1.      1.      1.      1.      1.      2.     1.0     0.0     0.0     0.0     0.0     0.0     0.0     0.0     0.0     0.0     0.0     0.0     0.0     0.0     0.0     0.0     0.0     0.0     0.0     0.0     4.1     0.0     0.0     0.0     0.0     0.0     0.0     0.0     0.0     0.0
   17 058   127    0.03    0.01    0.14    0.01    38.6   0.001   0.039   0.011   0.169     1.2     0.0     5.5     0.0     859    0.00    0.86    0.00    3.58     0.0     0.0     0.0     0.0     0.0     0.0     0.0     0.0     0.0     0.0    836.      0.      1.      1.      1.      1.      1.      1.      2.      2.     0.8     0.0     0.0     0.0     0.0     0.0     0.0     0.0     0.0     0.0     0.0     0.0     0.0     0.0     0.0     0.0     0.0     0.0     0.0     0.0     3.6     0.0     0.0     0.0     0.0     0.0     0.0     0.0     0.0     0.0
   17 059   128    0.03    0.01    0.15    0.01    39.3   0.001   0.039   0.011   0.172     1.1     0.0     5.0     0.0     718    0.00    0.72    0.00    3.04     0.0     0.0     0.0     0.0     0.0     0.0     0.0     0.0     0.0     0.0    694.      0.      1.      1.      1.      1.      1.      1.      2.      2.     0.7     0.0     0.0     0.0     0.0     0.0     0.0     0.0     0.0     0.0     0.0     0.0     0.0     0.0     0.0     0.0     0.0     0.0     0.0     0.0     3.0     0.0     0.0     0.0     0.0     0.0     0.0     0.0     0.0     0.0
   17 060   129    0.03    0.01    0.15    0.01    39.6   0.001   0.040   0.011   0.172     0.3     0.0     1.4     0.0     307    0.00    0.31    0.00    0.16     0.0     0.0     0.0     0.0     0.0     0.0     0.0     0.0     0.0     0.0    284.      0.      0.      1.      1.      1.      1.      1.      2.      2.     0.3     0.0     0.0     0.0     0.0     0.0     0.0     0.0     0.0     0.0     0.0     0.0     0.0     0.0     0.0     0.0     0.0     0.0     0.0     0.0     0.1     0.0     0.0     0.0     0.0     0.0     0.0     0.0     0.0     0.0
   17 061   130    0.04    0.01    0.15    0.01    39.9   0.001   0.040   0.011   0.172     0.3     0.0     1.3     0.0     291    0.00    0.29    0.00    0.15     0.0     0.0     0.0     0.0     0.0     0.0     0.0     0.0     0.0     0.0    271.      0.      0.      1.      1.      1.      1.      1.      2.      2.     0.3     0.0     0.0     0.0     0.0     0.0     0.0     0.0     0.0     0.0     0.0     0.0     0.0     0.0     0.0     0.0     0.0     0.0     0.0     0.0     0.1     0.0     0.0     0.0     0.0     0.0     0.0     0.0     0.0     0.0
   17 062   131    0.04    0.01    0.15    0.01    40.3   0.001   0.040   0.011   0.173     0.7     0.0     2.5     0.0     430    0.00    0.43    0.00    0.57     0.0     0.0     0.0     0.0     0.0     0.0     0.0     0.0     0.0     0.0    411.      0.      0.      1.      1.      1.      1.      1.      1.      2.     0.4     0.0     0.0     0.0     0.0     0.0     0.0     0.0     0.0     0.0     0.0     0.0     0.0     0.0     0.0     0.0     0.0     0.0     0.0     0.0     0.6     0.0     0.0     0.0     0.0     0.0     0.0     0.0     0.0     0.0
   17 063   132    0.04    0.01    0.16    0.01    40.8   0.001   0.041   0.011   0.174     0.8     0.0     3.1     0.0     439    0.00    0.44    0.00    1.30     0.0     0.0     0.0     0.0     0.0     0.0     0.0     0.0     0.0     0.0    421.      0.      0.      1.      1.      1.      1.      1.      1.      2.     0.4     0.0     0.0     0.0     0.0     0.0     0.0     0.0     0.0     0.0     0.0     0.0     0.0     0.0     0.0     0.0     0.0     0.0     0.0     0.0     1.3     0.0     0.0     0.0     0.0     0.0     0.0     0.0     0.0     0.0
   17 064   133    0.04    0.01    0.16    0.01    41.2   0.001   0.041   0.011   0.176     0.8     0.0     3.2     0.0     429    0.00    0.43    0.00    1.75     0.0     0.0     0.0     0.0     0.0     0.0     0.0     0.0     0.0     0.0    412.      0.      0.      1.      1.      1.      1.      1.      1.      1.     0.4     0.0     0.0     0.0     0.0     0.0     0.0     0.0     0.0     0.0     0.0     0.0     0.0     0.0     0.0     0.0     0.0     0.0     0.0     0.0     1.7     0.0     0.0     0.0     0.0     0.0     0.0     0.0     0.0     0.0
   17 065   134    0.04    0.01    0.16    0.01    41.6   0.001   0.042   0.011   0.177     0.7     0.0     2.5     0.0     367    0.00    0.37    0.00    0.97     0.0     0.0     0.0     0.0     0.0     0.0     0.0     0.0     0.0     0.0    349.      0.      0.      1.      1.      1.      1.      1.      1.      1.     0.3     0.0     0.0     0.0     0.0     0.0     0.0     0.0     0.0     0.0     0.0     0.0     0.0     0.0     0.0     0.0     0.0     0.0     0.0     0.0     1.0     0.0     0.0     0.0     0.0     0.0     0.0     0.0     0.0     0.0
   17 066   135    0.04    0.01    0.17    0.01    41.9   0.001   0.042   0.011   0.178     0.6     0.0     2.2     0.0     320    0.00    0.32    0.00    0.82     0.0     0.0     0.0     0.0     0.0     0.0     0.0     0.0     0.0     0.0    302.      0.      0.      1.      1.      1.      1.      1.      1.      1.     0.3     0.0     0.0     0.0     0.0     0.0     0.0     0.0     0.0     0.0     0.0     0.0     0.0     0.0     0.0     0.0     0.0     0.0     0.0     0.0     0.8     0.0     0.0     0.0     0.0     0.0     0.0     0.0     0.0     0.0
   17 067   136    0.04    0.01    0.17    0.01    42.2   0.001   0.042   0.011   0.179     0.6     0.0     2.2     0.0     278    0.00    0.28    0.00    1.04     0.0     0.0     0.0     0.0     0.0     0.0     0.0     0.0     0.0     0.0    260.      0.      0.      1.      1.      1.      1.      1.      1.      1.     0.3     0.0     0.0     0.0     0.0     0.0     0.0     0.0     0.0     0.0     0.0     0.0     0.0     0.0     0.0     0.0     0.0     0.0     0.0     0.0     1.0     0.0     0.0     0.0     0.0     0.0     0.0     0.0     0.0     0.0
   17 068   137    0.04    0.01    0.17    0.01    42.3   0.001   0.042   0.011   0.179     0.2     0.0     0.7     0.0     153    0.00    0.15    0.00    0.09     0.0     0.0     0.0     0.0     0.0     0.0     0.0     0.0     0.0     0.0    134.      0.      0.      0.      1.      0.      1.      1.      1.      1.     0.1     0.0     0.0     0.0     0.0     0.0     0.0     0.0     0.0     0.0     0.0     0.0     0.0     0.0     0.0     0.0     0.0     0.0     0.0     0.0     0.1     0.0     0.0     0.0     0.0     0.0     0.0     0.0     0.0     0.0
   17 069   138    0.04    0.01    0.17    0.02    42.5   0.002   0.042   0.017   0.180     0.2     0.0     0.6     7.3     128    0.76    0.13    6.57    0.88     0.0     0.0     0.0     5.2     2.1     0.0     0.0     0.0     0.0     0.0    110.      0.      0.      0.      0.      0.      0.      0.      1.      1.     0.1     0.0     0.0     0.6     0.2     0.0     0.0     0.0     0.0     0.0     0.0     0.0     0.0     4.6     1.9     0.0     0.0     0.0     0.0     0.0     0.1     0.0     0.0     0.6     0.2     0.0     0.0     0.0     0.0     0.0
   17 070   139    0.04    0.01    0.17    0.02    42.6   0.002   0.043   0.017   0.180     0.4     0.0     1.1     0.0     164    0.00    0.16    0.00    0.20     0.0     0.0     0.0     0.0     0.0     0.0     0.0     0.0     0.0     0.0    147.      0.      0.      0.      0.      0.      0.      0.      1.      1.     0.1     0.0     0.0     0.0     0.0     0.0     0.0     0.0     0.0     0.0     0.0     0.0     0.0     0.0     0.0     0.0     0.0     0.0     0.0     0.0     0.2     0.0     0.0     0.0     0.0     0.0     0.0     0.0     0.0     0.0
[...]
   17 185   254    0.02    0.01    0.04    0.02    33.2   0.001   0.034   0.014   0.064     0.2     0.0     0.5     0.0     385    0.00    0.38    0.00    0.66     0.0     0.0     0.0     0.0     0.0     0.0     0.0     0.0     0.0     0.0     14.     58.      9.     16.     16.     16.     16.     16.     30.     34.     0.0     0.1     0.0     0.0     0.0     0.0     0.0     0.0     0.0     0.0     0.0     0.0     0.0     0.0     0.0     0.0     0.0     0.0     0.0     0.0     0.1     0.2     0.0     0.0     0.0     0.0     0.0     0.0     0.0     0.0
   17 186   255    0.02    0.01    0.04    0.02    33.6   0.001   0.035   0.014   0.065     0.2     0.0     0.5     0.0     398    0.00    0.40    0.00    0.70     0.0     0.0     0.0     0.0     0.0     0.0     0.0     0.0     0.0     0.0     17.     69.      9.     16.     16.     15.     16.     16.     30.     34.     0.0     0.1     0.0     0.0     0.0     0.0     0.0     0.0     0.0     0.0     0.0     0.0     0.0     0.0     0.0     0.0     0.0     0.0     0.0     0.0     0.1     0.2     0.0     0.0     0.0     0.0     0.0     0.0     0.0     0.0
   17 187   256    0.02    0.01    0.04    0.02    34.0   0.001   0.035   0.014   0.066     0.2     0.0     0.5     0.0     420    0.00    0.42    0.00    0.78     0.0     0.0     0.0     0.0     0.0     0.0     0.0     0.0     0.0     0.0     20.     82.      9.     16.     16.     16.     17.     17.     31.     35.     0.0     0.1     0.0     0.0     0.0     0.0     0.0     0.0     0.0     0.0     0.0     0.0     0.0     0.0     0.0     0.0     0.0     0.0     0.0     0.0     0.1     0.3     0.0     0.0     0.0     0.0     0.0     0.0     0.0     0.0
   17 188   257    0.02    0.01    0.04    0.02    34.5   0.001   0.036   0.014   0.067     0.3     0.0     0.6     0.0     462    0.00    0.46    0.00    0.90     0.0     0.0     0.0     0.0     0.0     0.0     0.0     0.0     0.0     0.0     26.    101.     10.     17.     17.     17.     18.     17.     33.     37.     0.0     0.1     0.0     0.0     0.0     0.0     0.0     0.0     0.0     0.0     0.0     0.0     0.0     0.0     0.0     0.0     0.0     0.0     0.0     0.0     0.1     0.3     0.0     0.0     0.0     0.0     0.0     0.0     0.0     0.0
   17 189   258    0.02    0.01    0.04    0.02    35.0   0.001   0.036   0.014   0.068     0.3     0.0     0.6     0.0     513    0.00    0.51    0.00    1.04     0.0     0.0     0.0     0.0     0.0     0.0     0.0     0.0     0.0     0.0     30.    125.     12.     18.     19.     18.     19.     19.     35.     39.     0.0     0.1     0.0     0.0     0.0     0.0     0.0     0.0     0.0     0.0     0.0     0.0     0.0     0.0     0.0     0.0     0.0     0.0     0.0     0.0     0.2     0.4     0.0     0.1     0.0     0.0     0.0     0.0     0.0     0.0
   17 190   259    0.02    0.01    0.04    0.02    35.6   0.001   0.037   0.014   0.069     0.3     0.0     0.7     0.0     567    0.00    0.57    0.00    1.19     0.0     0.0     0.0     0.0     0.0     0.0     0.0     0.0     0.0     0.0     32.    153.     14.     20.     20.     19.     20.     20.     37.     42.     0.0     0.2     0.0     0.0     0.0     0.0     0.0     0.0     0.0     0.0     0.0     0.0     0.0     0.0     0.0     0.0     0.0     0.0     0.0     0.0     0.2     0.5     0.0     0.1     0.0     0.0     0.0     0.0     0.0     0.0
   17 191   260    0.02    0.01    0.04    0.02    36.1   0.001   0.037   0.014   0.069     0.1     0.0     0.2     0.0     543    0.00    0.54    0.00    0.60     0.0     0.0     0.0     0.0     0.0     0.0     0.0     0.0     0.0     0.0     21.    128.     11.     20.     20.     19.     21.     21.     39.     44.     0.0     0.1     0.0     0.0     0.0     0.0     0.0     0.0     0.0     0.0     0.0     0.0     0.0     0.0     0.0     0.0     0.0     0.0     0.0     0.0     0.0     0.1     0.0     0.0     0.0     0.0     0.0     0.0     0.0     0.0
   17 192   261    0.02    0.01    0.04    0.02    36.7   0.001   0.038   0.014   0.070     0.1     0.0     0.2     0.0     587    0.00    0.59    0.00    0.63     0.0     0.0     0.0     0.0     0.0     0.0     0.0     0.0     0.0     0.0     29.    158.     11.     20.     19.     19.     21.     21.     40.     45.     0.0     0.2     0.0     0.0     0.0     0.0     0.0     0.0     0.0     0.0     0.0     0.0     0.0     0.0     0.0     0.0     0.0     0.0     0.0     0.0     0.0     0.1     0.0     0.0     0.0     0.0     0.0     0.0     0.0     0.0
   17 193   262    0.02    0.01    0.04    0.02    37.3   0.001   0.038   0.014   0.071     0.1     0.0     0.3     0.0     613    0.00    0.61    0.00    0.71     0.0     0.0     0.0     0.0     0.0     0.0     0.0     0.0     0.0     0.0     37.    185.     12.     21.     18.     18.     19.     20.     38.     44.     0.0     0.2     0.0     0.0     0.0     0.0     0.0     0.0     0.0     0.0     0.0     0.0     0.0     0.0     0.0     0.0     0.0     0.0     0.0     0.0     0.0     0.2     0.0     0.0     0.0     0.0     0.0     0.0     0.0     0.0
   17 194   263    0.02    0.01    0.05    0.02    37.9   0.001   0.039   0.014   0.072     0.2     0.0     0.3     0.0     620    0.00    0.62    0.00    0.76     0.0     0.0     0.0     0.0     0.0     0.0     0.0     0.0     0.0     0.0     44.    195.     13.     22.     17.     17.     18.     19.     36.     42.     0.0     0.2     0.0     0.0     0.0     0.0     0.0     0.0     0.0     0.0     0.0     0.0     0.0     0.0     0.0     0.0     0.0     0.0     0.0     0.0     0.0     0.3     0.0     0.0     0.0     0.0     0.0     0.0     0.0     0.0
   17 195   264    0.02    0.01    0.05    0.02    38.5   0.001   0.040   0.015   0.073     0.3     0.0     0.7     0.8     593    0.01    0.59    0.76    1.12     0.1     0.2     0.4     0.0     0.0     0.0     0.0     0.0     0.0     0.0     51.    190.     15.     20.     14.     15.     16.     17.     33.     39.     0.1     0.2     0.0     0.0     0.0     0.0     0.0     0.0     0.0     0.0     0.1     0.2     0.4     0.0     0.0     0.0     0.0     0.0     0.0     0.0     0.2     0.5     0.0     0.0     0.0     0.0     0.0     0.0     0.0     0.0
   17 196   265    0.02    0.01    0.05    0.02    39.0   0.001   0.040   0.018   0.073     0.1     0.1     0.3     3.2     512    0.03    0.51    3.12    0.65     1.3     1.2     0.6     0.0     0.0     0.0     0.0     0.0     0.0     0.0     34.    156.     12.     16.     15.     13.     15.     15.     30.     35.     0.0     0.2     0.0     0.0     0.0     0.0     0.0     0.0     0.0     0.0     1.3     1.2     0.6     0.0     0.0     0.0     0.0     0.0     0.0     0.0     0.0     0.2     0.0     0.0     0.0     0.0     0.0     0.0     0.0     0.0
   17 197   266    0.02    0.01    0.05    0.02    39.5   0.001   0.041   0.019   0.074     0.3     0.3     0.6     0.9     504    0.01    0.50    0.89    0.86     0.4     0.3     0.2     0.0     0.0     0.0     0.0     0.0     0.0     0.0     47.    153.     12.     17.     14.     12.     13.     14.     28.     33.     0.0     0.2     0.0     0.0     0.0     0.0     0.0     0.0     0.0     0.0     0.4     0.3     0.2     0.0     0.0     0.0     0.0     0.0     0.0     0.0     0.1     0.4     0.0     0.0     0.0     0.0     0.0     0.0     0.0     0.0
   17 198   267    0.02    0.01    0.05    0.02    40.0   0.001   0.041   0.019   0.075     0.4     0.4     0.8     0.0     481    0.00    0.48    0.03    1.04     0.0     0.0     0.0     0.0     0.0     0.0     0.0     0.0     0.0     0.0     44.    145.     10.     16.     15.     11.     13.     13.     26.     31.     0.0     0.1     0.0     0.0     0.0     0.0     0.0     0.0     0.0     0.0     0.0     0.0     0.0     0.0     0.0     0.0     0.0     0.0     0.0     0.0     0.2     0.5     0.0     0.0     0.0     0.0     0.0     0.0     0.0     0.0
   17 199   268    0.02    0.02    0.05    0.02    40.5   0.001   0.042   0.019   0.076     0.4     0.4     0.9     0.0     471    0.00    0.47    0.00    1.02     0.0     0.0     0.0     0.0     0.0     0.0     0.0     0.0     0.0     0.0     45.    141.     10.     16.     15.     11.     12.     13.     25.     30.     0.0     0.1     0.0     0.0     0.0     0.0     0.0     0.0     0.0     0.0     0.0     0.0     0.0     0.0     0.0     0.0     0.0     0.0     0.0     0.0     0.2     0.5     0.0     0.0     0.0     0.0     0.0     0.0     0.0     0.0
   17 200   269    0.02    0.02    0.05    0.02    41.0   0.001   0.042   0.019   0.077     0.4     0.4     0.9     0.0     502    0.00    0.50    0.00    1.11     0.0     0.0     0.0     0.0     0.0     0.0     0.0     0.0     0.0     0.0     54.    150.     10.     17.     17.     11.     13.     13.     27.     32.     0.1     0.2     0.0     0.0     0.0     0.0     0.0     0.0     0.0     0.0     0.0     0.0     0.0     0.0     0.0     0.0     0.0     0.0     0.0     0.0     0.2     0.5     0.0     0.0     0.0     0.0     0.0     0.0     0.0     0.0
   17 201   270    0.02    0.02    0.05    0.02    41.6   0.001   0.043   0.019   0.079     0.5     0.3     0.9     0.0     574    0.00    0.57    0.00    1.31     0.0     0.0     0.0     0.0     0.0     0.0     0.0     0.0     0.0     0.0     70.    176.     11.     19.     21.     12.     14.     15.     29.     35.     0.1     0.2     0.0     0.0     0.0     0.0     0.0     0.0     0.0     0.0     0.0     0.0     0.0     0.0     0.0     0.0     0.0     0.0     0.0     0.0     0.3     0.6     0.0     0.0     0.0     0.0     0.0     0.0     0.0     0.0
   17 202   271    0.02    0.02    0.05    0.02    42.2   0.001   0.043   0.019   0.080     0.5     0.3     1.0     0.0     638    0.00    0.64    0.00    1.51     0.0     0.0     0.0     0.0     0.0     0.0     0.0     0.0     0.0     0.0     86.    201.     12.     22.     24.     13.     15.     15.     31.     37.     0.1     0.2     0.0     0.0     0.0     0.0     0.0     0.0     0.0     0.0     0.0     0.0     0.0     0.0     0.0     0.0     0.0     0.0     0.0     0.0     0.4     0.7     0.0     0.0     0.0     0.0     0.0     0.0     0.0     0.0
   17 203   272    0.03    0.02    0.05    0.02    42.9   0.001   0.044   0.019   0.082     0.5     0.3     1.1     0.0     701    0.00    0.70    0.00    1.71     0.0     0.0     0.0     0.0     0.0     0.0     0.0     0.0     0.0     0.0     99.    227.     13.     25.     27.     14.     15.     16.     33.     39.     0.1     0.2     0.0     0.0     0.0     0.0     0.0     0.0     0.0     0.0     0.0     0.0     0.0     0.0     0.0     0.0     0.0     0.0     0.0     0.0     0.5     0.8     0.0     0.1     0.0     0.0     0.0     0.0     0.0     0.0
   17 204   273    0.03    0.02    0.05    0.02    43.7   0.001   0.045   0.019   0.084     0.5     0.2     1.1     0.0     736    0.00    0.74    0.00    1.75     0.0     0.0     0.0     0.0     0.0     0.0     0.0     0.0     0.0     0.0     93.    251.     14.     27.     29.     14.     16.     17.     34.     41.     0.1     0.3     0.0     0.0     0.0     0.0     0.0     0.0     0.0     0.0     0.0     0.0     0.0     0.0     0.0     0.0     0.0     0.0     0.0     0.0     0.4     0.8     0.0     0.1     0.1     0.0     0.0     0.0     0.0     0.0
   17 205   274    0.03    0.02    0.05    0.02    44.4   0.001   0.045   0.019   0.085     0.5     0.2     1.2     0.0     753    0.00    0.75    0.00    1.83     0.0     0.0     0.0     0.0     0.0     0.0     0.0     0.0     0.0     0.0    106.    256.     14.     27.     30.     13.     15.     16.     34.     41.     0.1     0.3     0.0     0.0     0.0     0.0     0.0     0.0     0.0     0.0     0.0     0.0     0.0     0.0     0.0     0.0     0.0     0.0     0.0     0.0     0.5     0.9     0.0     0.1     0.1     0.0     0.0     0.0     0.0     0.0
   17 206   275    0.03    0.02    0.06    0.02    45.1   0.001   0.046   0.019   0.087     0.5     0.2     1.2     0.0     671    0.00    0.67    0.00    1.58     0.0     0.0     0.0     0.0     0.0     0.0     0.0     0.0     0.0     0.0     81.    232.     13.     25.     27.     12.     13.     14.     30.     37.     0.1     0.2     0.0     0.0     0.0     0.0     0.0     0.0     0.0     0.0     0.0     0.0     0.0     0.0     0.0     0.0     0.0     0.0     0.0     0.0     0.3     0.8     0.0     0.1     0.1     0.0     0.0     0.0     0.0     0.0
   17 207   276    0.03    0.02    0.06    0.02    45.6   0.001   0.047   0.019   0.088     0.2     0.1     0.4     0.0     512    0.00    0.51    0.00    0.49     0.0     0.0     0.0     0.0     0.0     0.0     0.0     0.0     0.0     0.0     53.    132.      8.     20.     25.     11.     12.     13.     28.     35.     0.1     0.1     0.0     0.0     0.0     0.0     0.0     0.0     0.0     0.0     0.0     0.0     0.0     0.0     0.0     0.0     0.0     0.0     0.0     0.0     0.0     0.1     0.0     0.0     0.0     0.0     0.0     0.0     0.0     0.0
   17 208   277    0.03    0.02    0.06    0.02    46.1   0.001   0.047   0.019   0.088     0.2     0.1     0.4     0.0     465    0.00    0.46    0.00    0.37     0.0     0.0     0.0     0.0     0.0     0.0     0.0     0.0     0.0     0.0     53.    127.      7.     11.     12.      9.     11.     12.     25.     32.     0.1     0.1     0.0     0.0     0.0     0.0     0.0     0.0     0.0     0.0     0.0     0.0     0.0     0.0     0.0     0.0     0.0     0.0     0.0     0.0     0.0     0.1     0.0     0.0     0.0     0.0     0.0     0.0     0.0     0.0
   17 209   278    0.03    0.02    0.06    0.02    46.5   0.001   0.048   0.019   0.088     0.2     0.1     0.4     0.0     465    0.00    0.46    0.00    0.37     0.0     0.0     0.0     0.0     0.0     0.0     0.0     0.0     0.0     0.0     55.    140.      7.     12.     12.      8.     10.     11.     23.     30.     0.1     0.1     0.0     0.0     0.0     0.0     0.0     0.0     0.0     0.0     0.0     0.0     0.0     0.0     0.0     0.0     0.0     0.0     0.0     0.0     0.0     0.1     0.0     0.0     0.0     0.0     0.0     0.0     0.0     0.0
   17 210   279    0.03    0.02    0.06    0.02    47.1   0.001   0.048   0.019   0.089     0.4     0.1     0.9     0.0     563    0.00    0.56    0.00    0.71     0.0     0.0     0.0     0.0     0.0     0.0     0.0     0.0     0.0     0.0     88.    194.     11.     18.     18.     10.      9.     10.     22.     29.     0.1     0.2     0.0     0.0     0.0     0.0     0.0     0.0     0.0     0.0     0.0     0.0     0.0     0.0     0.0     0.0     0.0     0.0     0.0     0.0     0.2     0.3     0.0     0.0     0.0     0.0     0.0     0.0     0.0     0.0
   17 211   280    0.03    0.02    0.06    0.02    47.7   0.001   0.049   0.019   0.090     0.6     0.2     1.2     0.9     664    0.01    0.66    0.86    1.53     0.0     0.3     0.3     0.3     0.0     0.0     0.0     0.0     0.0     0.0    107.    244.     14.     23.     23.     15.     12.     11.     24.     31.     0.1     0.3     0.0     0.0     0.0     0.0     0.0     0.0     0.0     0.0     0.0     0.3     0.2     0.3     0.0     0.0     0.0     0.0     0.0     0.0     0.4     0.7     0.0     0.0     0.0     0.0     0.0     0.0     0.0     0.0
   17 212   281    0.03    0.02    0.06    0.02    48.5   0.001   0.050   0.020   0.093     0.6     0.2     1.3     0.4     795    0.00    0.80    0.36    2.03     0.0     0.0     0.1     0.1     0.2     0.0     0.0     0.0     0.0     0.0    132.    306.     17.     29.     28.     16.     16.     16.     26.     34.     0.1     0.3     0.0     0.0     0.0     0.0     0.0     0.0     0.0     0.0     0.0     0.0     0.1     0.1     0.2     0.0     0.0     0.0     0.0     0.0     0.6     1.0     0.0     0.1     0.0     0.0     0.0     0.0     0.0     0.0
   17 213   282    0.03    0.02    0.06    0.02    49.5   0.001   0.051   0.020   0.095     0.6     0.1     1.4     0.0     983    0.00    0.98    0.00    2.57     0.0     0.0     0.0     0.0     0.0     0.0     0.0     0.0     0.0     0.0    171.    380.     22.     39.     40.     25.     22.     21.     30.     39.     0.2     0.4     0.0     0.0     0.0     0.0     0.0     0.0     0.0     0.0     0.0     0.0     0.0     0.0     0.0     0.0     0.0     0.0     0.0     0.0     0.7     1.3     0.1     0.1     0.1     0.0     0.0     0.0     0.0     0.0
   17 214   283    0.03    0.02    0.06    0.02    50.6   0.001   0.052   0.020   0.097     0.3     0.1     0.8     0.0    1094    0.00    1.09    0.00    2.26     0.0     0.0     0.0     0.0     0.0     0.0     0.0     0.0     0.0     0.0    153.    448.     24.     45.     46.     31.     28.     26.     33.     43.     0.2     0.4     0.0     0.0     0.0     0.0     0.0     0.0     0.0     0.0     0.0     0.0     0.0     0.0     0.0     0.0     0.0     0.0     0.0     0.0     0.1     1.5     0.1     0.1     0.1     0.1     0.0     0.0     0.0     0.0
   17 215   284    0.03    0.02    0.06    0.02    51.9   0.001   0.053   0.020   0.101     0.7     0.1     1.7     0.0    1323    0.00    1.32    0.00    3.57     0.0     0.0     0.0     0.0     0.0     0.0     0.0     0.0     0.0     0.0    257.    522.     28.     50.     50.     36.     33.     31.     35.     46.     0.3     0.5     0.0     0.1     0.0     0.0     0.0     0.0     0.0     0.0     0.0     0.0     0.0     0.0     0.0     0.0     0.0     0.0     0.0     0.0     1.1     1.7     0.1     0.1     0.1     0.1     0.0     0.0     0.0     0.0
   17 216   285    0.03    0.02    0.07    0.02    53.2   0.001   0.054   0.020   0.103     0.4     0.1     0.8     0.0    1290    0.00    1.29    0.00    2.30     0.0     0.0     0.0     0.0     0.0     0.0     0.0     0.0     0.0     0.0    190.    530.     27.     53.     52.     40.     37.     35.     36.     48.     0.2     0.5     0.0     0.1     0.1     0.0     0.0     0.0     0.0     0.0     0.0     0.0     0.0     0.0     0.0     0.0     0.0     0.0     0.0     0.0     0.1     1.4     0.1     0.1     0.1     0.1     0.1     0.0     0.0     0.1
   17 217   286    0.03    0.02    0.07    0.02    54.7   0.001   0.056   0.020   0.107     0.8     0.1     1.8     0.0    1445    0.00    1.45    0.00    3.49     0.0     0.0     0.0     0.0     0.0     0.0     0.0     0.0     0.0     0.0    300.    567.     30.     52.     52.     41.     39.     36.     36.     48.     0.3     0.6     0.0     0.1     0.1     0.0     0.0     0.0     0.0     0.0     0.0     0.0     0.0     0.0     0.0     0.0     0.0     0.0     0.0     0.0     0.8     1.9     0.1     0.1     0.1     0.1     0.1     0.0     0.0     0.1
   17 218   287    0.03    0.02    0.07    0.02    56.1   0.001   0.057   0.020   0.111     0.9     0.1     2.3     0.0    1469    0.00    1.47    0.00    4.03     0.0     0.0     0.0     0.0     0.0     0.0     0.0     0.0     0.0     0.0    316.    570.     30.     53.     52.     42.     40.     38.     35.     48.     0.3     0.6     0.0     0.1     0.1     0.0     0.0     0.0     0.0     0.0     0.0     0.0     0.0     0.0     0.0     0.0     0.0     0.0     0.0     0.0     1.3     1.9     0.1     0.1     0.1     0.1     0.1     0.0     0.0     0.1
   17 219   288    0.03    0.02    0.07    0.02    57.4   0.001   0.058   0.020   0.114     0.9     0.1     2.4     0.0    1300    0.00    1.30    0.00    3.53     0.0     0.0     0.0     0.0     0.0     0.0     0.0     0.0     0.0     0.0    272.    496.     26.     47.     46.     38.     36.     34.     31.     43.     0.3     0.5     0.0     0.0     0.0     0.0     0.0     0.0     0.0     0.0     0.0     0.0     0.0     0.0     0.0     0.0     0.0     0.0     0.0     0.0     1.2     1.6     0.1     0.1     0.1     0.1     0.1     0.0     0.0     0.0
