*PLANT N OUTPUT FILE

*DSSAT Cropping System Model Ver. 4.8.5.000 -release  FEB 02, 2026 11:47:14

*RUN   1        : 1                         WHAPS048 TUDU1701    1
 MODEL          : WHAPS048 - Wheat
 EXPERIMENT     : TUDU1701 WH
 DATA PATH      :
 TREATMENT  1   : 1                         WHAPS048
  
@YEAR DOY   DAS   DAP   CNAD   GNAD   GN%D   VN%D   NUPC   LNAD   SNAD   LN%D   SN%D   RN%D   SNN0C   SNN1C NFact1 NFact2 NFact3 NFact4  RootN lfshthN
   16 298     1     0    0.0    0.0   0.00   0.00    0.0    0.0    0.0    0.0   0.00   0.00    0.00    0.00   0.00   0.00   0.00   0.00   0.00   0.00
   16 299     2     1    0.0    0.0   0.00   0.00    0.0    0.0    0.0    0.0   0.00   0.00    0.00    0.00   0.00   0.00   0.00   0.00   0.00   0.00
   16 300     3     2    0.0    0.0   0.00   0.00    0.0    0.0    0.0    0.0   0.00   0.00    0.00    0.00   0.00   0.00   0.00   0.00   0.00   0.00
   16 301     4     3    0.0    0.0   0.00   0.00    0.0    0.0    0.0    0.0   0.00   0.00    0.00    0.00   0.00   0.00   0.00   0.00   0.00   0.00
   16 302     5     4    0.0    0.0   0.00   0.00    0.0    0.0    0.0    0.0   0.00   0.00    0.00    0.00   0.00   0.00   0.00   0.00   0.00   0.00
   16 303     6     5    0.0    0.0   0.00   0.00    0.0    0.0    0.0    0.0   0.00   0.00    0.00    0.00   0.00   0.00   0.00   0.00   0.00   0.00
   16 304     7     6    0.0    0.0   0.00   0.00    0.0    0.0    0.0    0.0   0.00   0.00    0.00    0.00   0.00   0.00   0.00   0.00   0.00   0.00
   16 305     8     7    0.0    0.0   0.00   0.00    0.0    0.0    0.0    0.0   0.00   0.00    0.00    0.00   0.00   0.00   0.00   0.00   0.00   0.00
   16 306     9     8    0.0    0.0   0.00   0.00    0.0    0.0    0.0    0.0   0.00   0.00    0.00    0.00   0.00   0.00   0.00   0.00   0.00   0.00
   16 307    10     9    0.0    0.0   0.00   0.00    0.0    0.0    0.0    0.0   0.00   0.00    0.00    0.00   0.00   0.00   0.00   0.00   0.00   0.00
   16 308    11    10    0.0    0.0   0.00   0.00    0.0    0.0    0.0    0.0   0.00   0.00    0.00    0.00   0.00   0.00   0.00   0.00   0.00   0.00
   16 309    12    11    0.0    0.0   0.00   0.00    0.0    0.0    0.0    0.0   0.00   0.00    0.00    0.00   0.00   0.00   0.00   0.00   0.00   0.00
   16 310    13    12    0.0    0.0   0.00   0.00    0.0    0.0    0.0    0.0   0.00   0.00    0.00    0.00   0.00   0.00   0.00   0.00   0.00   0.00
   16 311    14    13    0.0    0.0   0.00   0.00    0.0    0.0    0.0    0.0   0.00   0.00    0.00    0.00   0.00   0.00   0.00   0.00   0.00   0.00
   16 312    15    14    1.0    0.0   0.00  10.60    0.2    0.6    0.0    6.3   6.36   4.49    0.00    0.00   0.00   0.00   0.00   0.00   1.07   0.41
   16 313    16    15    1.0    0.0   0.00  10.48    0.2    0.6    0.0    6.3   6.36   4.47    0.00    0.00   0.00   0.00   0.00   0.00   1.06   0.41
   16 314    17    16    1.0    0.0   0.00  10.27    0.2    0.6    0.0    6.3   6.36   4.42    0.00    0.00   0.00   0.00   0.00   0.00   1.05   0.41
   16 315    18    17    1.0    0.0   0.00   9.52    0.2    0.6    0.0    5.9   6.36   4.40    0.00    0.00   0.00   0.00   0.00   0.00   1.04   0.41
   16 316    19    18    1.1    0.0   0.00   9.40    0.2    0.6    0.0    6.1   6.36   4.37    0.00    0.00   0.00   0.00   0.00   0.00   1.03   0.41
   16 317    20    19    1.1    0.0   0.00   9.47    0.3    0.7    0.0    6.3   6.36   4.34    0.00    0.00   0.00   0.00   0.00   0.00   1.02   0.41
   16 318    21    20    1.1    0.0   0.00   9.53    0.3    0.7    0.0    6.3   6.36   4.34    0.00    0.00   0.00   0.00   0.00   0.00   1.01   0.41
   16 319    22    21    1.1    0.0   0.00   9.53    0.3    0.7    0.0    6.3   6.36   4.34    0.00    0.00   0.00   0.00   0.00   0.00   1.00   0.41
   16 320    23    22    1.1    0.0   0.00   9.09    0.3    0.7    0.0    6.1   6.36   4.31    0.00    0.00   0.00   0.00   0.00   0.00   0.99   0.41
   16 321    24    23    1.1    0.0   0.00   7.17    0.3    0.7    0.0    4.8   6.36   4.29    0.00    0.00   0.00   0.00   0.00   0.00   0.98   0.41
   16 322    25    24    1.4    0.0   0.00   6.72    0.5    0.9    0.0    4.9   6.36   4.25    0.00    0.00   0.00   0.00   0.00   0.00   0.97   0.41
   16 323    26    25    1.4    0.0   0.00   5.65    0.6    1.0    0.0    4.2   6.36   4.21    0.00    0.00   0.00   0.00   0.00   0.00   0.96   0.41
   16 324    27    26    1.5    0.0   0.00   5.54    0.7    1.1    0.0    4.2   6.36   4.19    0.00    0.00   0.00   0.00   0.00   0.00   0.95   0.41
   16 325    28    27    1.6    0.0   0.00   5.29    0.7    1.1    0.0    4.2   6.36   4.11    0.00    0.00   0.00   0.00   0.00   0.00   0.94   0.41
   16 326    29    28    1.7    0.0   0.00   4.48    0.8    1.2    0.0    3.6   6.36   4.03    0.00    0.00   0.00   0.00   0.00   0.00   0.93   0.41
   16 327    30    29    1.8    0.0   0.00   3.94    0.9    1.3    0.0    3.2   6.36   3.97    0.00    0.00   0.00   0.00   0.00   0.00   0.92   0.41
   16 328    31    30    1.8    0.0   0.00   3.70    1.0    1.4    0.0    3.0   6.36   3.90    0.00    0.00   0.00   0.00   0.00   0.00   0.91   0.41
   16 329    32    31    1.9    0.0   0.00   3.61    1.0    1.4    0.0    3.0   6.36   3.87    0.00    0.00   0.00   0.00   0.00   0.00   0.90   0.41
   16 330    33    32    1.9    0.0   0.00   3.41    1.1    1.5    0.0    2.9   6.36   3.84    0.00    0.00   0.00   0.00   0.00   0.00   0.89   0.41
   16 331    34    33    2.0    0.0   0.00   3.23    1.1    1.6    0.0    2.7   6.36   3.82    0.00    0.00   0.00   0.00   0.00   0.00   0.88   0.41
   16 332    35    34    2.0    0.0   0.00   3.17    1.2    1.6    0.0    2.7   6.36   3.77    0.00    0.00   0.00   0.00   0.00   0.00   0.87   0.41
   16 333    36    35    2.1    0.0   0.00   3.25    1.2    1.6    0.0    2.8   6.36   3.77    0.00    0.00   0.00   0.00   0.00   0.00   0.87   0.41
   16 334    37    36    2.1    0.0   0.00   3.32    1.3    1.7    0.0    2.8   6.36   3.77    0.00    0.00   0.00   0.00   0.00   0.00   0.86   0.41
   16 335    38    37    2.2    0.0   0.00   3.38    1.3    1.7    0.0    2.9   6.36   3.77    0.00    0.00   0.00   0.00   0.00   0.00   0.85   0.41
   16 336    39    38    2.2    0.0   0.00   3.39    1.4    1.8    0.0    2.9   6.36   3.73    0.00    0.00   0.00   0.00   0.00   0.00   0.84   0.41
   16 337    40    39    2.2    0.0   0.00   3.38    1.4    1.8    0.0    3.0   6.36   3.69    0.00    0.00   0.00   0.00   0.00   0.00   0.83   0.41
   16 338    41    40    2.3    0.0   0.00   3.44    1.4    1.8    0.0    3.0   6.36   3.69    0.00    0.00   0.00   0.00   0.00   0.00   0.82   0.41
   16 339    42    41    2.3    0.0   0.00   3.50    1.5    1.9    0.0    3.1   6.36   3.69    0.00    0.00   0.00   0.00   0.00   0.00   0.82   0.41
   16 340    43    42    2.4    0.0   0.00   3.55    1.5    1.9    0.0    3.1   6.36   3.69    0.00    0.00   0.00   0.00   0.00   0.00   0.81   0.41
   16 341    44    43    2.4    0.0   0.00   3.59    1.5    1.9    0.0    3.2   6.36   3.69    0.00    0.00   0.00   0.00   0.00   0.00   0.80   0.41
   16 342    45    44    2.4    0.0   0.00   3.64    1.6    2.0    0.0    3.2   6.36   3.69    0.00    0.00   0.00   0.00   0.00   0.00   0.79   0.41
   16 343    46    45    2.4    0.0   0.00   3.68    1.6    2.0    0.0    3.3   6.36   3.69    0.00    0.00   0.00   0.00   0.00   0.00   0.78   0.41
   16 344    47    46    2.5    0.0   0.00   3.67    1.6    2.0    0.0    3.3   6.36   3.67    0.00    0.00   0.00   0.00   0.00   0.00   0.78   0.41
   16 345    48    47    2.5    0.0   0.00   3.62    1.7    2.1    0.0    3.3   6.36   3.58    0.00    0.00   0.00   0.00   0.00   0.00   0.77   0.41
   16 346    49    48    2.5    0.0   0.00   3.64    1.7    2.1    0.0    3.3   6.36   3.55    0.00    0.00   0.00   0.00   0.00   0.00   0.76   0.41
   16 347    50    49    2.6    0.0   0.00   3.66    1.7    2.1    0.0    3.3   6.36   3.52    0.00    0.00   0.00   0.00   0.00   0.00   0.75   0.41
   16 348    51    50    2.6    0.0   0.00   3.65    1.7    2.1    0.0    3.4   6.36   3.46    0.00    0.00   0.00   0.00   0.00   0.00   0.74   0.41
   16 349    52    51    2.6    0.0   0.00   3.64    1.8    2.2    0.0    3.4   6.36   3.39    0.00    0.00   0.00   0.00   0.00   0.00   0.74   0.41
   16 350    53    52    2.6    0.0   0.00   3.66    1.8    2.2    0.0    3.4   6.36   3.38    0.00    0.00   0.00   0.00   0.00   0.00   0.73   0.41
   16 351    54    53    2.6    0.0   0.00   3.69    1.8    2.2    0.0    3.4   6.36   3.38    0.00    0.00   0.00   0.00   0.00   0.00   0.72   0.41
   16 352    55    54    2.7    0.0   0.00   3.72    1.8    2.2    0.0    3.5   6.36   3.38    0.00    0.00   0.00   0.00   0.00   0.00   0.72   0.42
   16 353    56    55    2.7    0.0   0.00   3.75    1.8    2.3    0.0    3.5   6.36   3.38    0.00    0.00   0.00   0.00   0.00   0.00   0.71   0.42
   16 354    57    56    2.7    0.0   0.00   3.78    1.9    2.3    0.0    3.5   6.36   3.38    0.00    0.00   0.00   0.00   0.00   0.00   0.70   0.42
   16 355    58    57    2.7    0.0   0.00   3.81    1.9    2.3    0.0    3.6   6.36   3.38    0.00    0.00   0.00   0.00   0.00   0.00   0.69   0.42
   16 356    59    58    2.8    0.0   0.00   3.83    1.9    2.3    0.0    3.6   6.36   3.38    0.00    0.00   0.00   0.00   0.00   0.00   0.69   0.42
   16 357    60    59    2.8    0.0   0.00   3.86    1.9    2.3    0.0    3.6   6.36   3.38    0.00    0.00   0.00   0.00   0.00   0.00   0.68   0.42
   16 358    61    60    2.8    0.0   0.00   3.88    1.9    2.3    0.0    3.6   6.36   3.38    0.00    0.00   0.00   0.00   0.00   0.00   0.67   0.42
   16 359    62    61    2.8    0.0   0.00   3.88    2.0    2.4    0.0    3.7   6.36   3.34    0.00    0.00   0.00   0.00   0.00   0.00   0.67   0.42
   16 360    63    62    2.8    0.0   0.00   3.86    2.0    2.4    0.0    3.7   6.36   3.28    0.00    0.00   0.00   0.00   0.00   0.00   0.66   0.42
   16 361    64    63    2.8    0.0   0.00   3.84    2.0    2.4    0.0    3.7   6.36   3.23    0.00    0.00   0.00   0.00   0.00   0.00   0.65   0.42
   16 362    65    64    2.9    0.0   0.00   3.83    2.0    2.4    0.0    3.7   6.36   3.18    0.00    0.00   0.00   0.00   0.00   0.00   0.65   0.42
   16 363    66    65    2.9    0.0   0.00   3.83    2.0    2.4    0.0    3.7   6.36   3.15    0.00    0.00   0.00   0.00   0.00   0.00   0.64   0.42
   16 364    67    66    2.9    0.0   0.00   3.84    2.1    2.4    0.0    3.7   6.36   3.10    0.00    0.00   0.00   0.00   0.00   0.00   0.63   0.42
   16 365    68    67    2.9    0.0   0.00   3.87    2.1    2.5    0.0    3.7   6.36   3.10    0.00    0.00   0.00   0.00   0.00   0.00   0.63   0.42
   16 366    69    68    2.9    0.0   0.00   3.90    2.1    2.5    0.0    3.8   6.36   3.10    0.00    0.00   0.00   0.00   0.00   0.00   0.62   0.42
   17 001    70    69    3.0    0.0   0.00   3.92    2.1    2.5    0.0    3.8   6.36   3.10    0.00    0.00   0.00   0.00   0.00   0.00   0.62   0.43
   17 002    71    70    3.0    0.0   0.00   3.95    2.1    2.5    0.0    3.8   6.36   3.10    0.00    0.00   0.00   0.00   0.00   0.00   0.61   0.43
   17 003    72    71    3.0    0.0   0.00   3.97    2.1    2.5    0.0    3.8   6.36   3.10    0.00    0.00   0.00   0.00   0.00   0.00   0.60   0.43
   17 004    73    72    3.0    0.0   0.00   3.99    2.2    2.6    0.0    3.9   6.36   3.10    0.00    0.00   0.00   0.00   0.00   0.00   0.60   0.43
   17 005    74    73    3.0    0.0   0.00   4.02    2.2    2.6    0.0    3.9   6.36   3.10    0.00    0.00   0.00   0.00   0.00   0.00   0.59   0.43
   17 006    75    74    3.0    0.0   0.00   4.04    2.2    2.6    0.0    3.9   6.36   3.10    0.00    0.00   0.00   0.00   0.00   0.00   0.59   0.43
   17 007    76    75    3.1    0.0   0.00   4.06    2.2    2.6    0.0    3.9   6.36   3.10    0.00    0.00   0.00   0.00   0.00   0.00   0.58   0.43
   17 008    77    76    3.1    0.0   0.00   4.08    2.2    2.6    0.0    4.0   6.36   3.10    0.00    0.00   0.00   0.00   0.00   0.00   0.57   0.44
   17 009    78    77    3.1    0.0   0.00   4.10    2.2    2.6    0.0    4.0   6.36   3.10    0.00    0.00   0.00   0.00   0.00   0.00   0.57   0.44
   17 010    79    78    3.1    0.0   0.00   4.12    2.3    2.6    0.0    4.0   6.36   3.10    0.00    0.00   0.00   0.00   0.00   0.00   0.56   0.44
   17 011    80    79    3.1    0.0   0.00   4.14    2.3    2.7    0.0    4.0   6.36   3.10    0.00    0.00   0.00   0.00   0.00   0.00   0.56   0.44
   17 012    81    80    3.1    0.0   0.00   4.13    2.3    2.7    0.0    4.0   6.36   3.06    0.00    0.00   0.00   0.00   0.00   0.00   0.55   0.44
   17 013    82    81    3.2    0.0   0.00   4.13    2.3    2.7    0.0    4.0   6.36   3.03    0.00    0.00   0.00   0.00   0.00   0.00   0.55   0.44
   17 014    83    82    3.2    0.0   0.00   4.15    2.3    2.7    0.0    4.1   6.36   3.03    0.00    0.00   0.00   0.00   0.00   0.00   0.54   0.44
   17 015    84    83    3.2    0.0   0.00   4.17    2.3    2.7    0.0    4.1   6.36   3.03    0.00    0.00   0.00   0.00   0.00   0.00   0.53   0.44
   17 016    85    84    3.2    0.0   0.00   4.19    2.4    2.7    0.0    4.1   6.36   3.03    0.00    0.00   0.00   0.00   0.00   0.00   0.53   0.44
   17 017    86    85    3.2    0.0   0.00   4.20    2.4    2.7    0.0    4.1   6.36   3.03    0.00    0.00   0.00   0.00   0.00   0.00   0.52   0.45
   17 018    87    86    3.2    0.0   0.00   4.22    2.4    2.8    0.0    4.1   6.36   3.03    0.00    0.00   0.00   0.00   0.00   0.00   0.52   0.45
   17 019    88    87    3.2    0.0   0.00   4.24    2.4    2.8    0.0    4.2   6.36   3.03    0.00    0.00   0.00   0.00   0.00   0.00   0.51   0.45
   17 020    89    88    3.3    0.0   0.00   4.26    2.4    2.8    0.0    4.2   6.36   3.03    0.00    0.00   0.00   0.00   0.00   0.00   0.51   0.45
   17 021    90    89    3.3    0.0   0.00   4.28    2.4    2.8    0.0    4.2   6.36   3.03    0.00    0.00   0.00   0.00   0.00   0.00   0.50   0.45
   17 022    91    90    3.3    0.0   0.00   4.29    2.4    2.8    0.0    4.2   6.36   3.03    0.00    0.00   0.00   0.00   0.00   0.00   0.50   0.45
   17 023    92    91    3.3    0.0   0.00   4.31    2.4    2.8    0.0    4.2   6.36   3.03    0.00    0.00   0.00   0.00   0.00   0.00   0.49   0.45
   17 024    93    92    3.3    0.0   0.00   4.33    2.5    2.8    0.0    4.2   6.36   3.03    0.00    0.00   0.00   0.00   0.00   0.00   0.49   0.45
   17 025    94    93    3.3    0.0   0.00   4.34    2.5    2.8    0.0    4.3   6.36   3.03    0.00    0.00   0.00   0.00   0.00   0.00   0.48   0.46
   17 026    95    94    3.3    0.0   0.00   4.36    2.5    2.8    0.0    4.3   6.36   3.03    0.00    0.00   0.00   0.00   0.00   0.00   0.48   0.46
   17 027    96    95    3.3    0.0   0.00   4.38    2.5    2.9    0.0    4.3   6.36   3.03    0.00    0.00   0.00   0.00   0.00   0.00   0.47   0.46
   17 028    97    96    3.4    0.0   0.00   4.39    2.5    2.9    0.0    4.3   6.36   3.03    0.00    0.00   0.00   0.00   0.00   0.00   0.47   0.46
   17 029    98    97    3.4    0.0   0.00   4.41    2.5    2.9    0.0    4.3   6.36   3.03    0.00    0.00   0.00   0.00   0.00   0.00   0.46   0.46
   17 030    99    98    3.4    0.0   0.00   4.43    2.5    2.9    0.0    4.3   6.36   3.03    0.00    0.00   0.00   0.00   0.00   0.00   0.46   0.46
   17 031   100    99    3.4    0.0   0.00   4.37    2.5    2.9    0.0    4.3   6.36   2.91    0.00    0.00   0.00   0.00   0.00   0.00   0.46   0.46
   17 032   101   100    3.4    0.0   0.00   4.36    2.6    2.9    0.0    4.3   6.36   2.84    0.00    0.00   0.00   0.00   0.00   0.00   0.45   0.46
   17 033   102   101    3.4    0.0   0.00   4.30    2.6    2.9    0.0    4.3   6.36   2.73    0.00    0.00   0.00   0.00   0.00   0.00   0.45   0.47
   17 034   103   102    3.4    0.0   0.00   4.28    2.6    2.9    0.0    4.3   6.36   2.67    0.00    0.00   0.00   0.00   0.00   0.00   0.44   0.47
   17 035   104   103    5.0    0.0   0.00   6.10    4.2    4.3    0.0    6.2   6.36   2.53    0.00    0.00   0.00   0.00   0.00   0.00   0.44   0.71
   17 036   105   104    5.2    0.0   0.00   6.03    4.3    4.4    0.0    6.1   6.36   2.35    0.00    0.00   0.00   0.00   0.00   0.00   0.43   0.78
   17 037   106   105    5.4    0.0   0.00   6.19    4.5    4.5    0.0    6.2   6.36   2.30    0.00    0.00   0.00   0.00   0.00   0.00   0.43   0.88
   17 038   107   106    5.4    0.0   0.00   6.10    4.6    4.5    0.0    6.2   6.36   2.19    0.00    0.00   0.00   0.00   0.00   0.00   0.42   0.91
   17 039   108   107    5.5    0.0   0.00   6.25    4.7    4.5    0.0    6.2   6.36   2.19    0.00    0.00   0.00   0.00   0.00   0.00   0.42   0.97
   17 040   109   108    5.5    0.0   0.00   6.25    4.7    4.5    0.0    6.2   6.36   2.19    0.00    0.00   0.00   0.00   0.00   0.00   0.42   0.97
   17 041   110   109    5.5    0.0   0.00   6.25    4.7    4.5    0.0    6.2   6.36   2.19    0.00    0.00   0.00   0.00   0.00   0.00   0.41   0.97
   17 042   111   110    5.5    0.0   0.00   6.25    4.7    4.5    0.0    6.2   6.36   2.19    0.00    0.00   0.00   0.00   0.00   0.00   0.41   0.97
   17 043   112   111    5.5    0.0   0.00   6.25    4.7    4.5    0.0    6.2   6.36   2.19    0.00    0.00   0.00   0.00   0.00   0.00   0.40   0.97
   17 044   113   112    5.5    0.0   0.00   6.15    4.7    4.5    0.0    6.2   6.36   2.12    0.00    0.00   0.00   0.00   0.00   0.00   0.40   0.97
   17 045   114   113    5.6    0.0   0.00   6.22    4.8    4.6    0.0    6.2   6.36   2.26    0.00    0.00   0.00   0.00   0.00   0.00   0.42   1.01
   17 046   115   114    5.6    0.0   0.00   6.21    4.8    4.6    0.0    6.2   6.36   2.26    0.00    0.00   0.00   0.00   0.00   0.00   0.42   1.02
   17 047   116   115    5.6    0.0   0.00   5.83    4.8    4.6    0.0    6.0   6.36   2.02    0.00    0.00   0.00   0.00   0.00   0.00   0.43   1.03
   17 048   117   116    6.0    0.0   0.00   6.09    5.2    4.8    0.0    6.1   6.36   2.05    0.00    0.00   0.00   0.00   0.00   0.00   0.45   1.22
   17 049   118   117    6.1    0.0   0.00   6.03    5.4    4.8    0.0    6.1   6.36   2.06    0.00    0.00   0.00   0.00   0.00   0.00   0.47   1.27
   17 050   119   118    6.3    0.0   0.00   6.13    5.6    4.9    0.0    6.2   6.36   2.08    0.00    0.00   0.00   0.00   0.00   0.00   0.49   1.36
   17 051   120   119    6.4    0.0   0.00   5.89    5.7    4.9    0.0    6.0   6.36   2.04    0.00    0.00   0.00   0.00   0.00   0.00   0.52   1.39
   17 052   121   120    6.7    0.0   0.00   6.01    6.0    5.1    0.0    6.1   6.36   1.98    0.00    0.00   0.00   0.00   0.00   0.00   0.53   1.55
   17 053   122   121    6.8    0.0   0.00   5.91    6.2    5.2    0.0    6.0   6.36   1.98    0.00    0.00   0.00   0.00   0.00   0.00   0.56   1.64
   17 054   123   122    7.1    0.0   0.00   5.65    6.5    5.3    0.0    5.8   6.36   1.97    0.00    0.00   0.00   0.00   0.00   0.00   0.63   1.77
   17 055   124   123    7.6    0.0   0.00   5.77    7.2    5.6    0.0    5.9   6.36   2.01    0.00    0.00   0.00   0.00   0.00   0.00   0.70   2.06
   17 056   125   124    8.1    0.0   0.00   5.86    7.8    5.8    0.0    5.9   6.36   2.14    0.00    0.00   0.00   0.09   0.17   0.17   0.86   2.28
   17 057   126   125    8.4    0.0   0.00   5.69    8.1    5.9    0.0    5.8   6.36   2.03    0.00    0.00   0.00   0.06   0.12   0.12   0.89   2.44
   17 058   127   126    9.0    0.0   0.00   5.50    8.8    6.2    0.0    5.6   6.36   2.02    0.00    0.00   0.00   0.11   0.20   0.20   1.01   2.73
   17 059   128   127    9.9    0.0   0.00   5.92    9.8    6.7    0.0    6.0   6.36   2.00    0.00    0.00   0.00   0.16   0.29   0.29   1.02   3.19
   17 060   129   128   10.1    0.0   0.00   5.71   10.1    6.8    0.0    5.8   6.36   2.04    0.00    0.00   0.00   0.04   0.07   0.07   1.12   3.30
   17 061   130   129   10.7    0.0   0.00   5.57   10.9    7.1    0.0    5.7   6.36   2.09    0.00    0.00   0.00   0.09   0.18   0.18   1.37   3.60
   17 062   131   130   11.5    0.0   0.00   5.73   12.0    7.5    0.0    5.8   6.36   2.09    0.00    0.00   0.00   0.13   0.24   0.24   1.57   4.04
   17 063   132   131   12.1    0.0   0.00   5.41   12.7    7.8    0.0    5.5   6.36   1.96    0.00    0.00   0.00   0.08   0.15   0.15   1.65   4.32
   17 064   133   132   13.4    0.0   0.00   5.54   14.2    8.4    0.0    5.6   6.36   2.02    0.00    0.00   0.00   0.16   0.30   0.30   1.86   4.97
   17 065   134   133   14.4    0.0   0.00   5.58   15.4    8.9    0.0    5.6   6.36   2.01    0.00    0.00   0.00   0.12   0.23   0.23   1.98   5.50
   17 066   135   134   15.4    0.0   0.00   5.83   16.5    9.4    0.0    5.8   6.36   2.04    0.00    0.00   0.00   0.11   0.21   0.21   2.11   6.00
   17 067   136   135   15.8    0.0   0.00   5.72   17.1    9.6    0.0    5.8   6.36   2.04    0.00    0.00   0.00   0.03   0.07   0.07   2.31   6.17
   17 068   137   136   16.3    0.0   0.00   5.71   17.6    9.8    0.0    5.7   6.36   1.97    0.00    0.00   0.00   0.06   0.11   0.11   2.28   6.45
   17 069   138   137   16.9    0.0   0.00   5.69   18.5   10.1    0.0    5.7   6.36   2.04    0.00    0.00   0.00   0.06   0.11   0.11   2.57   6.74
   17 070   139   138   17.5    0.0   0.00   5.72   19.2   10.4    0.0    5.7   6.36   2.01    0.00    0.00   0.00   0.06   0.11   0.11   2.69   7.04
   17 071   140   139   18.0    0.0   0.00   5.63   20.0   10.7    0.0    5.7   6.36   2.03    0.00    0.00   0.00   0.05   0.09   0.09   2.95   7.29
   17 072   141   140   18.7    0.0   0.00   5.56   21.1   11.0    0.0    5.6   6.36   2.02    0.00    0.00   0.00   0.07   0.13   0.13   3.27   7.67
   17 073   142   141   21.3    0.0   0.00   5.97   24.2   12.3    0.0    6.0   6.36   2.01    0.00    0.00   0.00   0.08   0.16   0.16   3.65   8.99
   17 074   143   142   22.7    0.0   0.00   5.95   26.0   13.0    0.0    5.9   6.36   2.00    0.00    0.00   0.00   0.00   0.00   0.00   4.06   9.67
   17 075   144   143   24.2    0.0   0.00   5.78   28.0   13.7    0.0    5.8   6.36   1.91    0.00    0.00   0.00   0.00   0.00   0.00   4.54  10.41
   17 076   145   144   25.9    0.0   0.00   5.45   30.0   14.6    0.0    5.5   6.36   1.80    0.00    0.00   0.00   0.00   0.00   0.00   4.87  11.26
   17 077   146   145   28.4    0.0   0.00   5.73   33.0   15.8    0.0    5.7   6.36   1.92    0.00    0.00   0.00   0.09   0.17   0.17   5.30  12.53
   17 078   147   146   30.2    0.0   0.00   5.64   35.2   16.7    0.0    5.6   6.36   1.90    0.00    0.00   0.00   0.00   0.00   0.00   5.54  13.45
   17 079   148   147   31.7    0.0   0.00   5.34   36.9   17.5    0.0    5.4   6.36   1.83    0.00    0.00   0.00   0.01   0.02   0.02   5.71  14.20
   17 080   149   148   33.1    0.0   0.00   5.09   38.5   18.1    0.0    5.1   6.36   1.75    0.00    0.00   0.00   0.09   0.17   0.17   5.88  14.90
   17 081   150   149   34.4    0.0   0.00   5.11   40.0   18.8    0.0    5.1   6.36   1.76    0.00    0.00   0.00   0.16   0.30   0.30   6.04  15.57
   17 082   151   150   35.5    0.0   0.00   4.93   41.4   19.4    0.0    5.0   6.36   1.62    0.00    0.00   0.00   0.15   0.28   0.28   6.26  16.12
   17 083   152   151   36.6    0.0   0.00   4.89   42.8   19.9    0.0    4.9   6.36   1.60    0.00    0.00   0.00   0.20   0.36   0.36   6.49  16.69
   17 084   153   152   37.7    0.0   0.00   4.76   44.2   20.4    0.0    4.8   6.36   1.52    0.00    0.00   0.00   0.20   0.37   0.37   6.73  17.21
   17 085   154   153   38.7    0.0   0.00   4.74   45.5   20.9    0.0    4.8   6.36   1.50    0.00    0.00   0.00   0.24   0.42   0.42   6.98  17.72
   17 086   155   154   39.6    0.0   0.00   4.62   46.7   21.4    0.0    4.7   6.36   1.44    0.00    0.00   0.00   0.24   0.42   0.42   7.21  18.19
   17 087   156   155   40.5    0.0   0.00   4.46   47.9   21.8    0.0    4.5   6.36   1.36    0.00    0.00   0.00   0.27   0.46   0.46   7.44  18.64
   17 088   157   156   41.3    0.0   0.00   4.27   49.1   22.3    0.0    4.3   6.36   1.27    0.00    0.00   0.00   0.31   0.52   0.52   7.66  19.06
   17 089   158   157   42.2    0.0   0.00   4.15   49.9   22.7    0.0    4.2   6.36   1.22    0.00    0.00   0.04   0.36   0.59   0.59   7.88  19.49
   17 090   159   158   43.0    0.0   0.00   3.98   50.7   23.1    0.0    4.1   6.36   1.15    0.00    0.00   0.08   0.39   0.63   0.63   8.10  19.90
   17 091   160   159   43.8    0.0   0.00   3.85   51.7   23.5    0.0    3.9   6.36   1.11    0.00    0.00   0.16   0.44   0.68   0.68   8.31  20.28
   17 092   161   160   44.5    0.0   0.00   3.73   52.7   23.8    0.0    3.8   6.36   1.06    0.00    0.00   0.21   0.47   0.72   0.72   8.49  20.64
   17 093   162   161   45.1    0.0   0.00   3.65   53.6   24.1    0.0    3.7   6.36   1.04    0.00    0.00   0.25   0.50   0.75   0.75   8.66  20.98
   17 094   163   162   45.8    0.0   0.00   3.61   54.5   24.4    0.0    3.7   6.36   1.03    0.00    0.00   0.29   0.52   0.77   0.77   8.82  21.30
   17 095   164   163   46.4    0.0   0.00   3.57   55.3   24.7    0.0    3.6   6.36   1.02    0.00    0.00   0.30   0.53   0.78   0.78   8.96  21.60
   17 096   165   164   46.9    0.0   0.00   3.56   56.1   25.0    0.0    3.6   6.36   1.02    0.00    0.00   0.31   0.54   0.79   0.79   9.08  21.87
   17 097   166   165   47.4    0.0   0.00   3.50   56.8   25.3    0.0    3.6   6.36   1.00    0.00    0.00   0.31   0.54   0.79   0.79   9.18  22.12
   17 098   167   166   47.9    0.0   0.00   3.43   57.3   25.5    0.0    3.5   6.36   0.98    0.00    0.00   0.33   0.55   0.80   0.80   9.28  22.37
   17 099   168   167   48.4    0.0   0.00   3.35   57.7   25.7    0.0    3.4   6.36   0.95    0.00    0.00   0.35   0.57   0.81   0.81   9.38  22.61
   17 100   169   168   48.8    0.0   0.00   3.27   58.0   26.0    0.0    3.3   6.36   0.92    0.00    0.00   0.38   0.59   0.83   0.83   9.47  22.84
   17 101   170   169   49.3    0.0   0.00   3.25   58.3   26.2    0.0    3.3   6.36   0.92    0.00    0.00   0.43   0.62   0.85   0.85   9.57  23.09
   17 102   171   170   49.8    0.0   0.00   3.21   58.5   26.4    0.0    3.3   6.36   0.91    0.00    0.00   0.43   0.62   0.85   0.85   9.67  23.33
   17 103   172   171   50.2    0.0   0.00   3.17   58.8   26.7    0.0    3.2   6.36   0.89    0.00    0.00   0.44   0.62   0.86   0.86   9.76  23.56
   17 104   173   172   50.7    0.0   0.00   3.14   58.9   26.9    0.0    3.2   6.36   0.89    0.00    0.00   0.45   0.64   0.87   0.87   9.85  23.80
   17 105   174   173   51.2    0.0   0.00   3.09   59.1   27.1    0.0    3.2   6.36   0.87    0.00    0.00   0.46   0.64   0.87   0.87   9.94  24.03
   17 106   175   174   51.6    0.0   0.00   3.08   59.3   27.3    0.0    3.2   6.36   0.87    0.00    0.00   0.48   0.65   0.88   0.88  10.03  24.27
   17 107   176   175   52.1    0.0   0.00   3.07   59.9   27.6    0.0    3.1   6.36   0.88    0.00    0.00   0.48   0.65   0.88   0.88  10.12  24.50
   17 108   177   176   52.5    0.0   0.00   3.08   60.5   27.8    0.0    3.2   6.36   0.88    0.00    0.00   0.48   0.65   0.88   0.88  10.19  24.71
   17 109   178   177   52.9    0.0   0.00   3.09   61.1   28.0    0.0    3.2   6.36   0.89    0.00    0.00   0.47   0.65   0.88   0.88  10.25  24.91
   17 110   179   178   53.3    0.0   0.00   3.10   61.6   28.2    0.0    3.2   6.36   0.90    0.00    0.00   0.46   0.64   0.87   0.87  10.30  25.09
   17 111   180   179   53.6    0.0   0.00   3.08   62.0   28.3    0.0    3.2   6.36   0.90    0.00    0.00   0.45   0.64   0.87   0.87  10.33  25.26
   17 112   181   180   53.9    0.0   0.00   3.06   62.5   28.5    0.0    3.1   6.36   0.89    0.00    0.00   0.46   0.64   0.87   0.87  10.35  25.41
   17 113   182   181   54.2    0.0   0.00   3.05   62.9   28.6    0.0    3.1   6.36   0.89    0.00    0.00   0.47   0.64   0.87   0.87  10.36  25.56
   17 114   183   182   54.4    0.0   0.00   3.02   63.3   28.7    0.0    3.1   6.36   0.88    0.00    0.00   0.46   0.64   0.87   0.87  10.37  25.69
   17 115   184   183   54.7    0.0   0.00   2.99   63.6   28.9    0.0    3.1   6.36   0.87    0.00    0.00   0.48   0.65   0.88   0.88  10.38  25.83
   17 116   185   184   55.0    0.0   0.00   2.99   64.0   29.0    0.0    3.1   6.36   0.87    0.00    0.00   0.49   0.66   0.88   0.88  10.38  25.95
   17 117   186   185   55.2    0.0   0.00   2.99   64.3   29.1    0.0    3.1   6.36   0.87    0.00    0.00   0.49   0.66   0.88   0.88  10.37  26.07
   17 118   187   186   55.4    0.0   0.00   2.99   64.6   29.2    0.0    3.1   6.36   0.87    0.00    0.00   0.48   0.65   0.88   0.88  10.35  26.17
   17 119   188   187   55.6    0.0   0.00   2.96   64.9   29.3    0.0    3.0   6.36   0.86    0.00    0.00   0.48   0.65   0.88   0.88  10.33  26.29
   17 120   189   188   55.8    0.0   0.00   2.93   65.2   29.4    0.0    3.0   6.36   0.85    0.00    0.00   0.48   0.66   0.88   0.88  10.31  26.38
   17 121   190   189   56.0    0.0   0.00   2.89   65.4   29.5    0.0    3.0   6.36   0.83    0.00    0.00   0.49   0.66   0.89   0.89  10.27  26.46
   17 122   191   190   56.1    0.0   0.00   2.85   65.6   29.5    0.0    2.9   6.36   0.82    0.00    0.00   0.51   0.67   0.89   0.89  10.22  26.52
   17 123   192   191   56.2    0.0   0.00   2.80   65.8   29.6    0.0    2.9   6.36   0.80    0.00    0.00   0.52   0.68   0.90   0.90  10.17  26.58
   17 124   193   192   56.3    0.0   0.00   2.77   65.9   29.7    0.0    2.8   6.36   0.78    0.00    0.00   0.54   0.69   0.91   0.91  10.12  26.64
   17 125   194   193   56.5    0.0   0.00   2.72   66.1   29.7    0.0    2.8   6.36   0.76    0.00    0.00   0.55   0.70   0.91   0.91  10.07  26.71
   17 126   195   194   56.6    0.0   0.00   2.68   66.3   29.8    0.0    2.7   6.36   0.75    0.00    0.00   0.57   0.71   0.92   0.92  10.03  26.78
   17 127   196   195   56.7    0.0   0.00   2.64   66.5   29.9    0.0    2.7   6.36   0.73    0.00    0.00   0.59   0.72   0.92   0.92  10.00  26.85
   17 128   197   196   56.9    0.0   0.00   2.61   66.7   29.9    0.0    2.7   6.36   0.73    0.00    0.00   0.60   0.73   0.93   0.93   9.96  26.93
   17 129   198   197   57.1    0.0   0.00   2.59   67.0   30.0    0.0    2.7   6.36   0.72    0.00    0.00   0.61   0.74   0.93   0.93   9.94  27.01
   17 130   199   198   57.2    0.0   0.00   2.51   67.2   30.1    0.0    2.6   0.24   0.71    0.00    0.00   0.61   0.74   0.93   0.93   9.90  27.10
   17 131   200   199   57.4    0.0   0.00   2.44   67.5   30.2    0.0    2.5   0.16   0.70    0.00    0.00   0.65   0.77   0.95   0.95   9.87  27.18
   17 132   201   200   57.6    0.0   0.00   2.39   67.7   30.3    0.0    2.5   0.13   0.70    0.00    0.00   0.67   0.78   0.95   0.95   9.84  27.26
   17 133   202   201   57.8    0.0   0.00   2.34   67.9   30.3    0.1    2.4   0.12   0.69    0.00    0.00   0.69   0.79   0.96   0.96   9.82  27.35
   17 134   203   202   57.9    0.0   0.00   2.30   68.2   30.4    0.1    2.4   0.12   0.69    0.00    0.00   0.70   0.80   0.96   0.96   9.79  27.43
   17 135   204   203   58.1    0.0   0.00   2.26   68.4   30.5    0.1    2.4   0.12   0.68    0.00    0.00   0.71   0.81   0.96   0.96   9.76  27.51
   17 136   205   204   58.3    0.0   0.00   2.22   68.7   30.6    0.1    2.4   0.12   0.68    0.00    0.00   0.71   0.81   0.96   0.96   9.76  27.61
   17 137   206   205   58.6    0.0   0.00   2.17   69.1   30.7    0.1    2.3   0.13   0.67    0.00    0.00   0.72   0.81   0.97   0.97   9.76  27.71
   17 138   207   206   58.8    0.0   0.00   2.14   69.4   30.8    0.2    2.3   0.14   0.67    0.00    0.00   0.73   0.82   0.97   0.97   9.76  27.82
   17 139   208   207   59.0    0.0   0.00   2.11   69.8   30.9    0.2    2.3   0.15   0.67    0.00    0.00   0.72   0.82   0.97   0.97   9.77  27.93
   17 140   209   208   59.3    0.0   0.00   2.08   70.1   31.0    0.3    2.3   0.16   0.67    0.00    0.00   0.73   0.82   0.97   0.97   9.78  28.03
   17 141   210   209   59.5    0.0   0.00   2.06   70.5   31.1    0.3    2.2   0.17   0.67    0.00    0.00   0.73   0.82   0.97   0.97   9.80  28.13
   17 142   211   210   59.8    0.0   0.00   2.03   70.8   31.2    0.4    2.2   0.17   0.66    0.00    0.00   0.73   0.82   0.97   0.97   9.81  28.23
   17 143   212   211   60.0    0.0   0.00   2.00   71.2   31.3    0.4    2.2   0.18   0.66    0.00    0.00   0.72   0.81   0.97   0.97   9.83  28.33
   17 144   213   212   61.7    0.0   0.00   2.02   73.7   31.9    0.8    2.2   0.33   0.71    0.00    0.00   0.72   0.81   0.97   0.97  10.57  29.00
   17 145   214   213   63.5    0.0   0.00   2.04   76.5   32.5    1.3    2.2   0.46   0.76    0.00    0.00   0.66   0.77   0.95   0.95  11.38  29.69
   17 146   215   214   64.8    0.0   0.00   2.02   78.5   33.0    1.7    2.2   0.52   0.79    0.00    0.00   0.60   0.73   0.93   0.93  11.94  30.18
   17 147   216   215   65.7    0.0   0.00   1.99   79.8   33.2    2.0    2.2   0.52   0.80    0.00    0.00   0.57   0.71   0.92   0.92  12.25  30.48
   17 148   217   216   66.2    0.0   0.00   1.95   80.5   33.4    2.1    2.2   0.50   0.79    0.00    0.00   0.56   0.70   0.91   0.91  12.39  30.65
   17 149   218   217   66.5    0.0   0.00   1.90   81.0   33.5    2.3    2.2   0.48   0.79    0.00    0.00   0.55   0.70   0.91   0.91  12.45  30.75
   17 150   219   218   70.3    0.0   0.00   1.96   87.0   34.2    4.3    2.2   0.76   0.92    0.00    0.00   0.53   0.69   0.90   0.90  14.55  31.69
   17 151   220   219   73.8    0.0   0.00   1.99   93.0   34.8    6.7    2.3   0.95   1.05    0.00    0.00   0.31   0.54   0.79   0.79  16.81  32.39
   17 152   221   220   76.8    0.0   0.00   1.97   98.3   34.9    9.2    2.3   1.05   1.16    0.00    0.00   0.11   0.41   0.65   0.65  18.89  32.71
   17 153   222   221   78.4    0.0   0.00   1.92  101.1   34.9   10.8    2.3   1.00   1.20    0.00    0.00   0.00   0.31   0.53   0.53  19.87  32.71
   17 154   223   222   82.1    0.0   0.00   1.91  107.1   34.9   14.5    2.3   1.13   1.30    0.00    0.00   0.00   0.28   0.49   0.49  21.98  32.71
   17 155   224   223   84.5    0.0   0.00   1.91  111.0   34.9   16.9    2.3   1.20   1.37    0.00    0.00   0.00   0.21   0.37   0.37  23.19  32.71
   17 156   225   224   87.4    0.0   0.00   1.91  115.4   34.9   19.8    2.3   1.27   1.43    0.00    0.00   0.00   0.12   0.23   0.23  24.45  32.71
   17 157   226   225   88.0    0.0   0.00   1.88  116.3   34.9   20.4    2.3   1.23   1.43    0.00    0.00   0.00   0.05   0.09   0.09  24.52  32.71
   17 158   227   226   88.7    0.0   0.00   1.83  117.2   34.9   21.0    2.3   1.14   1.42    0.00    0.00   0.00   0.02   0.04   0.04  24.54  32.71
   17 159   228   227   89.2    0.0   0.00   1.76  117.9   34.9   21.6    2.3   1.05   1.40    0.00    0.00   0.00   0.04   0.07   0.07  24.50  32.71
   17 160   229   228   89.7    0.0   0.00   1.70  118.6   34.9   22.1    2.3   0.98   1.38    0.00    0.00   0.00   0.06   0.11   0.11  24.44  32.71
   17 161   230   229   90.2    0.0   0.00   1.64  119.3   34.9   22.6    2.3   0.91   1.36    0.00    0.00   0.00   0.05   0.10   0.10  24.37  32.71
   17 162   231   230   90.6    0.0   0.00   1.58  119.9   34.9   23.0    2.3   0.85   1.34    0.00    0.00   0.00   0.05   0.10   0.10  24.29  32.71
   17 163   232   231   91.1    0.0   0.00   1.54  120.5   34.9   23.5    2.3   0.81   1.33    0.00    0.00   0.00   0.04   0.07   0.07  24.20  32.71
   17 164   233   232   93.2    0.0   0.00   1.52  123.3   34.9   25.6    2.3   0.82   1.35    0.00    0.00   0.00   0.00   0.00   0.00  24.65  32.71
   17 165   234   233   94.5    0.0   0.00   1.48  125.0   34.9   26.9    2.3   0.80   1.36    0.00    0.00   0.00   0.00   0.00   0.00  24.84  32.71
   17 166   235   234   98.9    0.0   0.00   1.50  131.0   34.9   31.3    2.3   0.88   1.42    0.00    0.00   0.00   0.00   0.00   0.00  26.16  32.71
   17 167   236   235  100.7    0.0   0.00   1.48  133.6   34.9   33.1    2.3   0.88   1.44    0.00    0.00   0.00   0.00   0.00   0.00  26.60  32.71
   17 168   237   236  101.5    0.0   0.00   1.45  134.7   34.9   33.9    2.3   0.85   1.44    0.00    0.00   0.00   0.00   0.00   0.00  26.65  32.71
   17 169   238   237  101.9    0.0   0.00   1.41  135.3   34.9   34.3    2.3   0.82   1.44    0.00    0.00   0.00   0.00   0.00   0.00  26.59  32.71
   17 170   239   238  102.3    0.0   0.00   1.38  135.6   34.9   34.7    2.3   0.79   1.43    0.00    0.00   0.00   0.00   0.00   0.00  26.50  32.71
   17 171   240   239  102.6    0.0   0.00   1.35  135.9   34.9   35.0    2.3   0.76   1.42    0.00    0.00   0.00   0.00   0.00   0.00  26.43  32.71
   17 172   241   240  102.9    0.0   0.00   1.32  136.1   34.9   35.3    2.3   0.74   1.42    0.00    0.00   0.00   0.00   0.00   0.00  26.38  32.71
   17 173   242   241  104.5    0.0   0.00   1.32  140.1   34.9   36.9    2.3   0.75   1.53    0.00    0.00   0.00   0.00   0.00   0.00  28.46  32.71
   17 174   243   242  104.8   23.7   2.24   1.15  140.7   31.1   29.9    2.0   0.75   1.53    0.00    0.00   0.00   0.00   0.00   0.00  28.50  20.06
   17 175   244   243  104.8   28.7   1.96   1.12  140.9   28.0   29.5    1.8   0.78   1.54    0.00    0.00   0.00   0.00   0.00   0.00  28.60  18.56
   17 176   245   244  104.8   33.1   1.82   1.09  141.3   25.5   28.9    1.7   0.81   1.56    0.00    0.00   0.00   0.00   0.00   0.00  28.80  17.33
   17 177   246   245  104.8   38.6   1.72   1.05  144.4   22.6   27.8    1.5   0.84   1.72    0.00    0.00   0.00   0.00   0.00   0.00  31.60  15.87
   17 178   247   246  104.8   43.7   1.64   1.01  144.5   20.1   26.4    1.3   0.87   1.71    0.00    0.00   0.00   0.00   0.00   0.00  31.32  14.61
   17 179   248   247  104.8   48.6   1.69   0.94  144.5   17.9   24.9    1.2   0.84   1.71    0.00    0.00   0.00   0.00   0.00   0.00  31.01  13.48
   17 180   249   248  104.8   53.0   1.75   0.86  144.5   15.9   23.4    1.0   0.79   1.71    0.00    0.00   0.00   0.00   0.00   0.00  30.70  12.48
   17 181   250   249  104.8   57.4   1.78   0.79  144.5   14.1   21.9    0.9   0.73   1.71    0.00    0.00   0.00   0.00   0.00   0.00  30.39  11.48
   17 182   251   250  104.9   61.6   1.82   0.72  144.5   12.3   20.4    0.8   0.69   1.71    0.00    0.00   0.00   0.00   0.00   0.00  30.02  10.54
   17 183   252   251  106.0   65.6   1.88   0.67  145.6   11.2   19.4    0.7   0.65   1.71    0.00    0.00   0.00   0.00   0.00   0.00  29.70   9.88
   17 184   253   252  108.3   70.0   1.91   0.64  147.6   10.3   18.6    0.7   0.62   1.71    0.00    0.00   0.00   0.00   0.00   0.00  29.39   9.40
   17 185   254   253  110.9   74.1   1.94   0.61  148.9    9.8   18.0    0.6   0.60   1.65    0.00    0.00   0.00   0.00   0.00   0.00  28.15   9.03
   17 186   255   254  113.1   77.6   1.94   0.59  149.4    9.3   17.4    0.6   0.59   1.57    0.00    0.00   0.00   0.00   0.00   0.00  26.46   8.73
   17 187   256   255  114.8   80.4   1.95   0.57  149.4    9.0   17.0    0.6   0.57   1.49    0.00    0.00   0.00   0.00   0.00   0.00  24.80   8.47
   17 188   257   256  116.0   82.6   1.95   0.56  149.4    8.7   16.5    0.6   0.55   1.43    0.00    0.00   0.00   0.00   0.00   0.00  23.66   8.23
   17 189   258   257  116.9   84.5   1.94   0.54  149.4    8.4   16.1    0.5   0.54   1.40    0.00    0.00   0.00   0.00   0.00   0.00  22.83   8.01
   17 190   259   258  117.6   86.0   1.92   0.53  154.8    8.1   15.7    0.5   0.53   1.70    0.00    0.00   0.00   0.00   0.00   0.00  27.57   7.79
   17 191   260   259  120.0   89.3   1.95   0.51  157.1    7.9   15.3    0.5   0.51   1.70    0.00    0.00   0.00   0.00   0.00   0.00  27.27   7.59
   17 192   261   260  122.4   92.4   1.96   0.50  159.4    7.7   14.9    0.5   0.50   1.70    0.00    0.00   0.00   0.00   0.00   0.00  26.99   7.40
   17 193   262   261  124.8   95.5   1.98   0.49  161.6    7.5   14.5    0.5   0.49   1.70    0.00    0.00   0.00   0.00   0.00   0.00  26.70   7.22
   17 194   263   262  127.1   98.6   1.98   0.48  163.8    7.3   14.2    0.5   0.48   1.70    0.00    0.00   0.00   0.00   0.00   0.00  26.42   7.05
   17 195   264   263  129.4  101.5   2.00   0.47  166.0    7.2   13.9    0.5   0.47   1.70    0.00    0.00   0.00   0.00   0.00   0.00  26.15   6.90
   17 196   265   264  131.7  104.4   2.01   0.46  168.1    7.0   13.6    0.5   0.46   1.70    0.00    0.00   0.00   0.00   0.00   0.00  25.87   6.75
   17 197   266   265  134.0  107.2   2.01   0.45  170.1    6.9   13.3    0.4   0.45   1.70    0.00    0.00   0.00   0.00   0.00   0.00  25.60   6.60
   17 198   267   266  136.2  110.1   2.02   0.44  171.5    6.7   13.0    0.4   0.44   1.65    0.00    0.00   0.00   0.00   0.00   0.00  24.71   6.45
   17 199   268   267  138.2  112.7   2.03   0.43  172.2    6.5   12.7    0.4   0.43   1.58    0.00    0.00   0.00   0.00   0.00   0.00  23.43   6.30
   17 200   269   268  139.9  115.1   2.04   0.41  172.5    6.4   12.3    0.4   0.41   1.51    0.00    0.00   0.00   0.00   0.00   0.00  22.16   6.12
   17 201   270   269  141.1  117.0   2.05   0.40  172.7    6.2   12.0    0.4   0.40   1.45    0.00    0.00   0.00   0.00   0.00   0.00  21.07   5.94
   17 202   271   270  142.1  118.7   2.05   0.39  172.8    6.0   11.6    0.4   0.39   1.41    0.00    0.00   0.00   0.00   0.00   0.00  20.23   5.77
   17 203   272   271  142.8  120.2   2.05   0.38  172.9    5.8   11.2    0.4   0.38   1.38    0.00    0.00   0.00   0.00   0.00   0.00  19.63   5.59
   17 204   273   272  143.4  121.5   2.05   0.37  172.9    5.6   10.9    0.4   0.37   1.36    0.00    0.00   0.00   0.00   0.00   0.00  19.08   5.41
   17 205   274   273  143.9  122.6   2.05   0.36  173.1    5.5   10.6    0.4   0.36   1.36    0.00    0.00   0.00   0.03   0.07   0.07  18.89   5.26
   17 206   275   274  144.5  123.5   2.05   0.35  174.2    5.4   10.4    0.3   0.35   1.41    0.00    0.00   0.00   0.14   0.26   0.26  19.40   5.17
   17 207   276   275  145.1  124.6   2.06   0.34  174.7    5.2   10.2    0.3   0.34   1.42    0.00    0.00   0.00   0.17   0.31   0.31  19.36   5.05
   17 208   277   276  145.9  125.8   2.07   0.33  175.5    5.1   10.0    0.3   0.33   1.43    0.00    0.00   0.00   0.19   0.35   0.35  19.30   4.95
   17 209   278   277  146.9  127.2   2.08   0.33  176.8    5.0    9.8    0.3   0.33   1.46    0.00    0.00   0.00   0.18   0.32   0.32  19.53   4.86
   17 210   279   278  148.0  128.8   2.09   0.32  178.0    4.9    9.5    0.3   0.32   1.48    0.00    0.00   0.00   0.14   0.26   0.26  19.58   4.74
   17 211   280   279  148.4  129.8   2.10   0.31  178.9    4.8    9.3    0.3   0.31   1.53    0.00    0.00   0.00   0.13   0.24   0.24  20.11   4.60
   17 212   281   280  148.7  130.4   2.10   0.31  179.7    4.7    9.1    0.3   0.31   1.58    0.00    0.00   0.00   0.14   0.26   0.26  20.48   4.53
   17 213   282   281  149.0  130.6   2.10   0.31  180.5    4.7    9.2    0.3   0.31   1.63    0.00    0.00   0.00   0.09   0.17   0.17  20.98   4.56
   17 214   283   282  149.0  130.6   2.10   0.31  180.5    4.7    9.2    0.3   0.31   1.63    0.00    0.00   0.00   0.09   0.17   0.17  20.77   4.56
   17 215   284   283  149.0  130.6   2.10   0.31  180.5    4.7    9.2    0.3   0.31   1.63    0.00    0.00   0.00   0.09   0.17   0.17  20.77   4.56
   17 216   285   284  149.0  130.6   2.10   0.31  180.5    4.7    9.2    0.3   0.31   1.63    0.00    0.00   0.00   0.09   0.17   0.17  20.77   4.56
   17 217   286   285  149.0  130.6   2.10   0.31  180.5    4.7    9.2    0.3   0.31   1.63    0.00    0.00   0.00   0.09   0.17   0.17  20.77   4.56
   17 218   287   286  149.0  130.6   2.10   0.31  180.5    4.7    9.2    0.3   0.31   1.63    0.00    0.00   0.00   0.09   0.17   0.17  20.77   4.56
   17 219   288   287  149.0  130.6   2.10   0.31  180.5    4.7    9.2    0.3   0.31   1.63    0.00    0.00   0.00   0.09   0.17   0.17  20.77   4.56

*DSSAT Cropping System Model Ver. 4.8.5.000 -release  FEB 02, 2026 11:47:14

*RUN   2        : 2                         WHAPS048 TUDU1701    2
 MODEL          : WHAPS048 - Wheat
 EXPERIMENT     : TUDU1701 WH
 DATA PATH      :
 TREATMENT  2   : 2                         WHAPS048
  
@YEAR DOY   DAS   DAP   CNAD   GNAD   GN%D   VN%D   NUPC   LNAD   SNAD   LN%D   SN%D   RN%D   SNN0C   SNN1C NFact1 NFact2 NFact3 NFact4  RootN lfshthN
   16 298     1     0    0.0    0.0   0.00   0.00    0.0    0.0    0.0    0.0   0.00   0.00    0.00    0.00   0.00   0.00   0.00   0.00   0.00   0.00
   16 299     2     1    0.0    0.0   0.00   0.00    0.0    0.0    0.0    0.0   0.00   0.00    0.00    0.00   0.00   0.00   0.00   0.00   0.00   0.00
   16 300     3     2    0.0    0.0   0.00   0.00    0.0    0.0    0.0    0.0   0.00   0.00    0.00    0.00   0.00   0.00   0.00   0.00   0.00   0.00
   16 301     4     3    0.0    0.0   0.00   0.00    0.0    0.0    0.0    0.0   0.00   0.00    0.00    0.00   0.00   0.00   0.00   0.00   0.00   0.00
   16 302     5     4    0.0    0.0   0.00   0.00    0.0    0.0    0.0    0.0   0.00   0.00    0.00    0.00   0.00   0.00   0.00   0.00   0.00   0.00
   16 303     6     5    0.0    0.0   0.00   0.00    0.0    0.0    0.0    0.0   0.00   0.00    0.00    0.00   0.00   0.00   0.00   0.00   0.00   0.00
   16 304     7     6    0.0    0.0   0.00   0.00    0.0    0.0    0.0    0.0   0.00   0.00    0.00    0.00   0.00   0.00   0.00   0.00   0.00   0.00
   16 305     8     7    0.0    0.0   0.00   0.00    0.0    0.0    0.0    0.0   0.00   0.00    0.00    0.00   0.00   0.00   0.00   0.00   0.00   0.00
   16 306     9     8    0.0    0.0   0.00   0.00    0.0    0.0    0.0    0.0   0.00   0.00    0.00    0.00   0.00   0.00   0.00   0.00   0.00   0.00
   16 307    10     9    0.0    0.0   0.00   0.00    0.0    0.0    0.0    0.0   0.00   0.00    0.00    0.00   0.00   0.00   0.00   0.00   0.00   0.00
   16 308    11    10    0.0    0.0   0.00   0.00    0.0    0.0    0.0    0.0   0.00   0.00    0.00    0.00   0.00   0.00   0.00   0.00   0.00   0.00
   16 309    12    11    0.0    0.0   0.00   0.00    0.0    0.0    0.0    0.0   0.00   0.00    0.00    0.00   0.00   0.00   0.00   0.00   0.00   0.00
   16 310    13    12    0.0    0.0   0.00   0.00    0.0    0.0    0.0    0.0   0.00   0.00    0.00    0.00   0.00   0.00   0.00   0.00   0.00   0.00
   16 311    14    13    0.0    0.0   0.00   0.00    0.0    0.0    0.0    0.0   0.00   0.00    0.00    0.00   0.00   0.00   0.00   0.00   0.00   0.00
   16 312    15    14    1.0    0.0   0.00  10.60    0.2    0.6    0.0    6.3   6.36   4.49    0.00    0.00   0.00   0.00   0.00   0.00   1.07   0.41
   16 313    16    15    1.0    0.0   0.00  10.48    0.2    0.6    0.0    6.3   6.36   4.47    0.00    0.00   0.00   0.00   0.00   0.00   1.06   0.41
   16 314    17    16    1.0    0.0   0.00  10.27    0.2    0.6    0.0    6.3   6.36   4.42    0.00    0.00   0.00   0.00   0.00   0.00   1.05   0.41
   16 315    18    17    1.0    0.0   0.00   9.52    0.2    0.6    0.0    5.9   6.36   4.40    0.00    0.00   0.00   0.00   0.00   0.00   1.04   0.41
   16 316    19    18    1.1    0.0   0.00   9.40    0.2    0.6    0.0    6.1   6.36   4.37    0.00    0.00   0.00   0.00   0.00   0.00   1.03   0.41
   16 317    20    19    1.1    0.0   0.00   9.47    0.3    0.7    0.0    6.3   6.36   4.34    0.00    0.00   0.00   0.00   0.00   0.00   1.02   0.41
   16 318    21    20    1.1    0.0   0.00   9.53    0.3    0.7    0.0    6.3   6.36   4.34    0.00    0.00   0.00   0.00   0.00   0.00   1.01   0.41
   16 319    22    21    1.1    0.0   0.00   9.53    0.3    0.7    0.0    6.3   6.36   4.34    0.00    0.00   0.00   0.00   0.00   0.00   1.00   0.41
   16 320    23    22    1.1    0.0   0.00   9.09    0.3    0.7    0.0    6.1   6.36   4.31    0.00    0.00   0.00   0.00   0.00   0.00   0.99   0.41
   16 321    24    23    1.1    0.0   0.00   7.17    0.3    0.7    0.0    4.8   6.36   4.29    0.00    0.00   0.00   0.00   0.00   0.00   0.98   0.41
   16 322    25    24    1.4    0.0   0.00   6.72    0.5    0.9    0.0    4.9   6.36   4.25    0.00    0.00   0.00   0.00   0.00   0.00   0.97   0.41
   16 323    26    25    1.4    0.0   0.00   5.65    0.6    1.0    0.0    4.2   6.36   4.21    0.00    0.00   0.00   0.00   0.00   0.00   0.96   0.41
   16 324    27    26    1.5    0.0   0.00   5.54    0.7    1.1    0.0    4.2   6.36   4.19    0.00    0.00   0.00   0.00   0.00   0.00   0.95   0.41
   16 325    28    27    1.6    0.0   0.00   5.29    0.7    1.1    0.0    4.2   6.36   4.11    0.00    0.00   0.00   0.00   0.00   0.00   0.94   0.41
   16 326    29    28    1.7    0.0   0.00   4.48    0.8    1.2    0.0    3.6   6.36   4.03    0.00    0.00   0.00   0.00   0.00   0.00   0.93   0.41
   16 327    30    29    1.8    0.0   0.00   3.94    0.9    1.3    0.0    3.2   6.36   3.97    0.00    0.00   0.00   0.00   0.00   0.00   0.92   0.41
   16 328    31    30    1.8    0.0   0.00   3.70    1.0    1.4    0.0    3.0   6.36   3.90    0.00    0.00   0.00   0.00   0.00   0.00   0.91   0.41
   16 329    32    31    1.9    0.0   0.00   3.61    1.0    1.4    0.0    3.0   6.36   3.87    0.00    0.00   0.00   0.00   0.00   0.00   0.90   0.41
   16 330    33    32    1.9    0.0   0.00   3.41    1.1    1.5    0.0    2.9   6.36   3.84    0.00    0.00   0.00   0.00   0.00   0.00   0.89   0.41
   16 331    34    33    2.0    0.0   0.00   3.23    1.1    1.6    0.0    2.7   6.36   3.82    0.00    0.00   0.00   0.00   0.00   0.00   0.88   0.41
   16 332    35    34    2.0    0.0   0.00   3.17    1.2    1.6    0.0    2.7   6.36   3.77    0.00    0.00   0.00   0.00   0.00   0.00   0.87   0.41
   16 333    36    35    2.1    0.0   0.00   3.25    1.2    1.6    0.0    2.8   6.36   3.77    0.00    0.00   0.00   0.00   0.00   0.00   0.87   0.41
   16 334    37    36    2.1    0.0   0.00   3.32    1.3    1.7    0.0    2.8   6.36   3.77    0.00    0.00   0.00   0.00   0.00   0.00   0.86   0.41
   16 335    38    37    2.2    0.0   0.00   3.38    1.3    1.7    0.0    2.9   6.36   3.77    0.00    0.00   0.00   0.00   0.00   0.00   0.85   0.41
   16 336    39    38    2.2    0.0   0.00   3.39    1.4    1.8    0.0    2.9   6.36   3.73    0.00    0.00   0.00   0.00   0.00   0.00   0.84   0.41
   16 337    40    39    2.2    0.0   0.00   3.38    1.4    1.8    0.0    3.0   6.36   3.69    0.00    0.00   0.00   0.00   0.00   0.00   0.83   0.41
   16 338    41    40    2.3    0.0   0.00   3.44    1.4    1.8    0.0    3.0   6.36   3.69    0.00    0.00   0.00   0.00   0.00   0.00   0.82   0.41
   16 339    42    41    2.3    0.0   0.00   3.50    1.5    1.9    0.0    3.1   6.36   3.69    0.00    0.00   0.00   0.00   0.00   0.00   0.82   0.41
   16 340    43    42    2.4    0.0   0.00   3.55    1.5    1.9    0.0    3.1   6.36   3.69    0.00    0.00   0.00   0.00   0.00   0.00   0.81   0.41
   16 341    44    43    2.4    0.0   0.00   3.59    1.5    1.9    0.0    3.2   6.36   3.69    0.00    0.00   0.00   0.00   0.00   0.00   0.80   0.41
   16 342    45    44    2.4    0.0   0.00   3.64    1.6    2.0    0.0    3.2   6.36   3.69    0.00    0.00   0.00   0.00   0.00   0.00   0.79   0.41
   16 343    46    45    2.4    0.0   0.00   3.68    1.6    2.0    0.0    3.3   6.36   3.69    0.00    0.00   0.00   0.00   0.00   0.00   0.78   0.41
   16 344    47    46    2.5    0.0   0.00   3.67    1.6    2.0    0.0    3.3   6.36   3.67    0.00    0.00   0.00   0.00   0.00   0.00   0.78   0.41
   16 345    48    47    2.5    0.0   0.00   3.62    1.7    2.1    0.0    3.3   6.36   3.58    0.00    0.00   0.00   0.00   0.00   0.00   0.77   0.41
   16 346    49    48    2.5    0.0   0.00   3.64    1.7    2.1    0.0    3.3   6.36   3.55    0.00    0.00   0.00   0.00   0.00   0.00   0.76   0.41
   16 347    50    49    2.6    0.0   0.00   3.66    1.7    2.1    0.0    3.3   6.36   3.52    0.00    0.00   0.00   0.00   0.00   0.00   0.75   0.41
   16 348    51    50    2.6    0.0   0.00   3.65    1.7    2.1    0.0    3.4   6.36   3.46    0.00    0.00   0.00   0.00   0.00   0.00   0.74   0.41
   16 349    52    51    2.6    0.0   0.00   3.64    1.8    2.2    0.0    3.4   6.36   3.39    0.00    0.00   0.00   0.00   0.00   0.00   0.74   0.41
   16 350    53    52    2.6    0.0   0.00   3.66    1.8    2.2    0.0    3.4   6.36   3.38    0.00    0.00   0.00   0.00   0.00   0.00   0.73   0.41
   16 351    54    53    2.6    0.0   0.00   3.69    1.8    2.2    0.0    3.4   6.36   3.38    0.00    0.00   0.00   0.00   0.00   0.00   0.72   0.41
   16 352    55    54    2.7    0.0   0.00   3.72    1.8    2.2    0.0    3.5   6.36   3.38    0.00    0.00   0.00   0.00   0.00   0.00   0.72   0.42
   16 353    56    55    2.7    0.0   0.00   3.75    1.8    2.3    0.0    3.5   6.36   3.38    0.00    0.00   0.00   0.00   0.00   0.00   0.71   0.42
   16 354    57    56    2.7    0.0   0.00   3.78    1.9    2.3    0.0    3.5   6.36   3.38    0.00    0.00   0.00   0.00   0.00   0.00   0.70   0.42
   16 355    58    57    2.7    0.0   0.00   3.81    1.9    2.3    0.0    3.6   6.36   3.38    0.00    0.00   0.00   0.00   0.00   0.00   0.69   0.42
   16 356    59    58    2.8    0.0   0.00   3.83    1.9    2.3    0.0    3.6   6.36   3.38    0.00    0.00   0.00   0.00   0.00   0.00   0.69   0.42
   16 357    60    59    2.8    0.0   0.00   3.86    1.9    2.3    0.0    3.6   6.36   3.38    0.00    0.00   0.00   0.00   0.00   0.00   0.68   0.42
   16 358    61    60    2.8    0.0   0.00   3.88    1.9    2.3    0.0    3.6   6.36   3.38    0.00    0.00   0.00   0.00   0.00   0.00   0.67   0.42
   16 359    62    61    2.8    0.0   0.00   3.88    2.0    2.4    0.0    3.7   6.36   3.34    0.00    0.00   0.00   0.00   0.00   0.00   0.67   0.42
   16 360    63    62    2.8    0.0   0.00   3.86    2.0    2.4    0.0    3.7   6.36   3.28    0.00    0.00   0.00   0.00   0.00   0.00   0.66   0.42
   16 361    64    63    2.8    0.0   0.00   3.84    2.0    2.4    0.0    3.7   6.36   3.23    0.00    0.00   0.00   0.00   0.00   0.00   0.65   0.42
   16 362    65    64    2.9    0.0   0.00   3.83    2.0    2.4    0.0    3.7   6.36   3.18    0.00    0.00   0.00   0.00   0.00   0.00   0.65   0.42
   16 363    66    65    2.9    0.0   0.00   3.83    2.0    2.4    0.0    3.7   6.36   3.15    0.00    0.00   0.00   0.00   0.00   0.00   0.64   0.42
   16 364    67    66    2.9    0.0   0.00   3.84    2.1    2.4    0.0    3.7   6.36   3.10    0.00    0.00   0.00   0.00   0.00   0.00   0.63   0.42
   16 365    68    67    2.9    0.0   0.00   3.87    2.1    2.5    0.0    3.7   6.36   3.10    0.00    0.00   0.00   0.00   0.00   0.00   0.63   0.42
   16 366    69    68    2.9    0.0   0.00   3.90    2.1    2.5    0.0    3.8   6.36   3.10    0.00    0.00   0.00   0.00   0.00   0.00   0.62   0.42
   17 001    70    69    3.0    0.0   0.00   3.92    2.1    2.5    0.0    3.8   6.36   3.10    0.00    0.00   0.00   0.00   0.00   0.00   0.62   0.43
   17 002    71    70    3.0    0.0   0.00   3.95    2.1    2.5    0.0    3.8   6.36   3.10    0.00    0.00   0.00   0.00   0.00   0.00   0.61   0.43
   17 003    72    71    3.0    0.0   0.00   3.97    2.1    2.5    0.0    3.8   6.36   3.10    0.00    0.00   0.00   0.00   0.00   0.00   0.60   0.43
   17 004    73    72    3.0    0.0   0.00   3.99    2.2    2.6    0.0    3.9   6.36   3.10    0.00    0.00   0.00   0.00   0.00   0.00   0.60   0.43
   17 005    74    73    3.0    0.0   0.00   4.02    2.2    2.6    0.0    3.9   6.36   3.10    0.00    0.00   0.00   0.00   0.00   0.00   0.59   0.43
   17 006    75    74    3.0    0.0   0.00   4.04    2.2    2.6    0.0    3.9   6.36   3.10    0.00    0.00   0.00   0.00   0.00   0.00   0.59   0.43
   17 007    76    75    3.1    0.0   0.00   4.06    2.2    2.6    0.0    3.9   6.36   3.10    0.00    0.00   0.00   0.00   0.00   0.00   0.58   0.43
   17 008    77    76    3.1    0.0   0.00   4.08    2.2    2.6    0.0    4.0   6.36   3.10    0.00    0.00   0.00   0.00   0.00   0.00   0.57   0.44
   17 009    78    77    3.1    0.0   0.00   4.10    2.2    2.6    0.0    4.0   6.36   3.10    0.00    0.00   0.00   0.00   0.00   0.00   0.57   0.44
   17 010    79    78    3.1    0.0   0.00   4.12    2.3    2.6    0.0    4.0   6.36   3.10    0.00    0.00   0.00   0.00   0.00   0.00   0.56   0.44
   17 011    80    79    3.1    0.0   0.00   4.14    2.3    2.7    0.0    4.0   6.36   3.10    0.00    0.00   0.00   0.00   0.00   0.00   0.56   0.44
   17 012    81    80    3.1    0.0   0.00   4.13    2.3    2.7    0.0    4.0   6.36   3.06    0.00    0.00   0.00   0.00   0.00   0.00   0.55   0.44
   17 013    82    81    3.2    0.0   0.00   4.13    2.3    2.7    0.0    4.0   6.36   3.03    0.00    0.00   0.00   0.00   0.00   0.00   0.55   0.44
   17 014    83    82    3.2    0.0   0.00   4.15    2.3    2.7    0.0    4.1   6.36   3.03    0.00    0.00   0.00   0.00   0.00   0.00   0.54   0.44
   17 015    84    83    3.2    0.0   0.00   4.17    2.3    2.7    0.0    4.1   6.36   3.03    0.00    0.00   0.00   0.00   0.00   0.00   0.53   0.44
   17 016    85    84    3.2    0.0   0.00   4.19    2.4    2.7    0.0    4.1   6.36   3.03    0.00    0.00   0.00   0.00   0.00   0.00   0.53   0.44
   17 017    86    85    3.2    0.0   0.00   4.20    2.4    2.7    0.0    4.1   6.36   3.03    0.00    0.00   0.00   0.00   0.00   0.00   0.52   0.45
   17 018    87    86    3.2    0.0   0.00   4.22    2.4    2.8    0.0    4.1   6.36   3.03    0.00    0.00   0.00   0.00   0.00   0.00   0.52   0.45
   17 019    88    87    3.2    0.0   0.00   4.24    2.4    2.8    0.0    4.2   6.36   3.03    0.00    0.00   0.00   0.00   0.00   0.00   0.51   0.45
   17 020    89    88    3.3    0.0   0.00   4.26    2.4    2.8    0.0    4.2   6.36   3.03    0.00    0.00   0.00   0.00   0.00   0.00   0.51   0.45
   17 021    90    89    3.3    0.0   0.00   4.28    2.4    2.8    0.0    4.2   6.36   3.03    0.00    0.00   0.00   0.00   0.00   0.00   0.50   0.45
   17 022    91    90    3.3    0.0   0.00   4.29    2.4    2.8    0.0    4.2   6.36   3.03    0.00    0.00   0.00   0.00   0.00   0.00   0.50   0.45
   17 023    92    91    3.3    0.0   0.00   4.31    2.4    2.8    0.0    4.2   6.36   3.03    0.00    0.00   0.00   0.00   0.00   0.00   0.49   0.45
   17 024    93    92    3.3    0.0   0.00   4.33    2.5    2.8    0.0    4.2   6.36   3.03    0.00    0.00   0.00   0.00   0.00   0.00   0.49   0.45
   17 025    94    93    3.3    0.0   0.00   4.34    2.5    2.8    0.0    4.3   6.36   3.03    0.00    0.00   0.00   0.00   0.00   0.00   0.48   0.46
   17 026    95    94    3.3    0.0   0.00   4.36    2.5    2.8    0.0    4.3   6.36   3.03    0.00    0.00   0.00   0.00   0.00   0.00   0.48   0.46
   17 027    96    95    3.3    0.0   0.00   4.38    2.5    2.9    0.0    4.3   6.36   3.03    0.00    0.00   0.00   0.00   0.00   0.00   0.47   0.46
   17 028    97    96    3.4    0.0   0.00   4.39    2.5    2.9    0.0    4.3   6.36   3.03    0.00    0.00   0.00   0.00   0.00   0.00   0.47   0.46
   17 029    98    97    3.4    0.0   0.00   4.41    2.5    2.9    0.0    4.3   6.36   3.03    0.00    0.00   0.00   0.00   0.00   0.00   0.46   0.46
   17 030    99    98    3.4    0.0   0.00   4.43    2.5    2.9    0.0    4.3   6.36   3.03    0.00    0.00   0.00   0.00   0.00   0.00   0.46   0.46
   17 031   100    99    3.4    0.0   0.00   4.37    2.5    2.9    0.0    4.3   6.36   2.91    0.00    0.00   0.00   0.00   0.00   0.00   0.46   0.46
   17 032   101   100    3.4    0.0   0.00   4.36    2.6    2.9    0.0    4.3   6.36   2.84    0.00    0.00   0.00   0.00   0.00   0.00   0.45   0.46
   17 033   102   101    3.4    0.0   0.00   4.30    2.6    2.9    0.0    4.3   6.36   2.73    0.00    0.00   0.00   0.00   0.00   0.00   0.45   0.47
   17 034   103   102    3.4    0.0   0.00   4.28    2.6    2.9    0.0    4.3   6.36   2.67    0.00    0.00   0.00   0.00   0.00   0.00   0.44   0.47
   17 035   104   103    5.0    0.0   0.00   6.10    4.2    4.3    0.0    6.2   6.36   2.53    0.00    0.00   0.00   0.00   0.00   0.00   0.44   0.71
   17 036   105   104    5.2    0.0   0.00   6.03    4.3    4.4    0.0    6.1   6.36   2.35    0.00    0.00   0.00   0.00   0.00   0.00   0.43   0.78
   17 037   106   105    5.4    0.0   0.00   6.19    4.5    4.5    0.0    6.2   6.36   2.30    0.00    0.00   0.00   0.00   0.00   0.00   0.43   0.88
   17 038   107   106    5.4    0.0   0.00   6.10    4.6    4.5    0.0    6.2   6.36   2.19    0.00    0.00   0.00   0.00   0.00   0.00   0.42   0.91
   17 039   108   107    5.5    0.0   0.00   6.25    4.7    4.5    0.0    6.2   6.36   2.19    0.00    0.00   0.00   0.00   0.00   0.00   0.42   0.97
   17 040   109   108    5.5    0.0   0.00   6.25    4.7    4.5    0.0    6.2   6.36   2.19    0.00    0.00   0.00   0.00   0.00   0.00   0.42   0.97
   17 041   110   109    5.5    0.0   0.00   6.25    4.7    4.5    0.0    6.2   6.36   2.19    0.00    0.00   0.00   0.00   0.00   0.00   0.41   0.97
   17 042   111   110    5.5    0.0   0.00   6.25    4.7    4.5    0.0    6.2   6.36   2.19    0.00    0.00   0.00   0.00   0.00   0.00   0.41   0.97
   17 043   112   111    5.5    0.0   0.00   6.25    4.7    4.5    0.0    6.2   6.36   2.19    0.00    0.00   0.00   0.00   0.00   0.00   0.40   0.97
   17 044   113   112    5.5    0.0   0.00   6.15    4.7    4.5    0.0    6.2   6.36   2.12    0.00    0.00   0.00   0.00   0.00   0.00   0.40   0.97
   17 045   114   113    5.6    0.0   0.00   6.22    4.8    4.6    0.0    6.2   6.36   2.26    0.00    0.00   0.00   0.00   0.00   0.00   0.42   1.01
   17 046   115   114    5.6    0.0   0.00   6.21    4.8    4.6    0.0    6.2   6.36   2.26    0.00    0.00   0.00   0.00   0.00   0.00   0.42   1.02
   17 047   116   115    5.6    0.0   0.00   5.83    4.8    4.6    0.0    6.0   6.36   2.02    0.00    0.00   0.00   0.00   0.00   0.00   0.43   1.03
   17 048   117   116    6.0    0.0   0.00   6.09    5.2    4.8    0.0    6.1   6.36   2.05    0.00    0.00   0.00   0.00   0.00   0.00   0.45   1.22
   17 049   118   117    6.1    0.0   0.00   6.03    5.4    4.8    0.0    6.1   6.36   2.06    0.00    0.00   0.00   0.00   0.00   0.00   0.47   1.27
   17 050   119   118    6.3    0.0   0.00   6.13    5.6    4.9    0.0    6.2   6.36   2.08    0.00    0.00   0.00   0.00   0.00   0.00   0.49   1.36
   17 051   120   119    6.4    0.0   0.00   5.89    5.7    4.9    0.0    6.0   6.36   2.04    0.00    0.00   0.00   0.00   0.00   0.00   0.52   1.39
   17 052   121   120    6.7    0.0   0.00   6.01    6.0    5.1    0.0    6.1   6.36   1.98    0.00    0.00   0.00   0.00   0.00   0.00   0.53   1.55
   17 053   122   121    6.8    0.0   0.00   5.91    6.2    5.2    0.0    6.0   6.36   1.98    0.00    0.00   0.00   0.00   0.00   0.00   0.56   1.64
   17 054   123   122    7.1    0.0   0.00   5.65    6.5    5.3    0.0    5.8   6.36   1.97    0.00    0.00   0.00   0.00   0.00   0.00   0.63   1.77
   17 055   124   123    7.6    0.0   0.00   5.77    7.2    5.6    0.0    5.9   6.36   2.01    0.00    0.00   0.00   0.00   0.00   0.00   0.70   2.06
   17 056   125   124    8.1    0.0   0.00   5.86    7.8    5.8    0.0    5.9   6.36   2.14    0.00    0.00   0.00   0.09   0.17   0.17   0.86   2.28
   17 057   126   125    8.4    0.0   0.00   5.69    8.1    5.9    0.0    5.8   6.36   2.03    0.00    0.00   0.00   0.06   0.12   0.12   0.89   2.44
   17 058   127   126    9.0    0.0   0.00   5.50    8.8    6.2    0.0    5.6   6.36   2.02    0.00    0.00   0.00   0.11   0.20   0.20   1.01   2.73
   17 059   128   127    9.9    0.0   0.00   5.92    9.8    6.7    0.0    6.0   6.36   2.00    0.00    0.00   0.00   0.16   0.29   0.29   1.02   3.19
   17 060   129   128   10.1    0.0   0.00   5.71   10.1    6.8    0.0    5.8   6.36   2.04    0.00    0.00   0.00   0.04   0.07   0.07   1.12   3.30
   17 061   130   129   10.7    0.0   0.00   5.57   10.9    7.1    0.0    5.7   6.36   2.09    0.00    0.00   0.00   0.09   0.18   0.18   1.37   3.60
   17 062   131   130   11.5    0.0   0.00   5.73   12.0    7.5    0.0    5.8   6.36   2.09    0.00    0.00   0.00   0.13   0.24   0.24   1.57   4.04
   17 063   132   131   12.1    0.0   0.00   5.41   12.7    7.8    0.0    5.5   6.36   1.96    0.00    0.00   0.00   0.08   0.15   0.15   1.65   4.32
   17 064   133   132   13.4    0.0   0.00   5.54   14.2    8.4    0.0    5.6   6.36   2.02    0.00    0.00   0.00   0.16   0.30   0.30   1.86   4.97
   17 065   134   133   14.4    0.0   0.00   5.58   15.4    8.9    0.0    5.6   6.36   2.01    0.00    0.00   0.00   0.12   0.23   0.23   1.98   5.50
   17 066   135   134   15.4    0.0   0.00   5.83   16.5    9.4    0.0    5.8   6.36   2.04    0.00    0.00   0.00   0.11   0.21   0.21   2.11   6.00
   17 067   136   135   15.8    0.0   0.00   5.72   17.1    9.6    0.0    5.8   6.36   2.04    0.00    0.00   0.00   0.03   0.07   0.07   2.31   6.17
   17 068   137   136   16.3    0.0   0.00   5.71   17.6    9.8    0.0    5.7   6.36   1.97    0.00    0.00   0.00   0.06   0.11   0.11   2.28   6.45
   17 069   138   137   16.9    0.0   0.00   5.69   18.5   10.1    0.0    5.7   6.36   2.04    0.00    0.00   0.00   0.06   0.11   0.11   2.57   6.74
   17 070   139   138   17.5    0.0   0.00   5.72   19.2   10.4    0.0    5.7   6.36   2.01    0.00    0.00   0.00   0.06   0.11   0.11   2.69   7.04
   17 071   140   139   18.0    0.0   0.00   5.63   20.0   10.7    0.0    5.7   6.36   2.03    0.00    0.00   0.00   0.05   0.09   0.09   2.95   7.29
   17 072   141   140   18.7    0.0   0.00   5.56   21.1   11.0    0.0    5.6   6.36   2.02    0.00    0.00   0.00   0.07   0.13   0.13   3.27   7.67
   17 073   142   141   21.2    0.0   0.00   5.94   24.0   12.3    0.0    5.9   6.36   2.00    0.00    0.00   0.00   0.08   0.16   0.16   3.63   8.92
   17 074   143   142   22.7    0.0   0.00   5.95   26.0   13.0    0.0    5.9   6.36   2.00    0.00    0.00   0.00   0.00   0.00   0.00   4.06   9.67
   17 075   144   143   24.2    0.0   0.00   5.78   28.0   13.7    0.0    5.8   6.36   1.92    0.00    0.00   0.00   0.00   0.00   0.00   4.55  10.42
   17 076   145   144   25.9    0.0   0.00   5.46   30.1   14.6    0.0    5.5   6.36   1.81    0.00    0.00   0.00   0.00   0.00   0.00   4.88  11.28
   17 077   146   145   28.3    0.0   0.00   5.72   33.0   15.8    0.0    5.7   6.36   1.91    0.00    0.00   0.00   0.08   0.16   0.16   5.29  12.51
   17 078   147   146   30.2    0.0   0.00   5.63   35.1   16.7    0.0    5.6   6.36   1.90    0.00    0.00   0.00   0.00   0.00   0.00   5.54  13.44
   17 079   148   147   31.7    0.0   0.00   5.34   36.9   17.5    0.0    5.4   6.36   1.83    0.00    0.00   0.00   0.01   0.02   0.02   5.72  14.21
   17 080   149   148   33.2    0.0   0.00   5.10   38.6   18.2    0.0    5.1   6.36   1.75    0.00    0.00   0.00   0.09   0.17   0.17   5.89  14.94
   17 081   150   149   34.5    0.0   0.00   5.12   40.2   18.9    0.0    5.2   6.36   1.76    0.00    0.00   0.00   0.16   0.30   0.30   6.06  15.64
   17 082   151   150   35.7    0.0   0.00   4.95   41.6   19.4    0.0    5.0   6.36   1.63    0.00    0.00   0.00   0.14   0.27   0.27   6.30  16.21
   17 083   152   151   36.8    0.0   0.00   4.92   43.1   20.0    0.0    5.0   6.36   1.61    0.00    0.00   0.00   0.19   0.35   0.35   6.54  16.80
   17 084   153   152   37.9    0.0   0.00   4.79   44.5   20.6    0.0    4.8   6.36   1.53    0.00    0.00   0.00   0.20   0.35   0.35   6.79  17.33
   17 085   154   153   39.0    0.0   0.00   4.77   45.9   21.1    0.0    4.8   6.36   1.51    0.00    0.00   0.00   0.23   0.41   0.41   7.04  17.86
   17 086   155   154   39.9    0.0   0.00   4.65   47.1   21.5    0.0    4.7   6.36   1.45    0.00    0.00   0.00   0.23   0.41   0.41   7.28  18.34
   17 087   156   155   40.8    0.0   0.00   4.48   48.3   22.0    0.0    4.5   6.36   1.37    0.00    0.00   0.00   0.26   0.45   0.45   7.52  18.80
   17 088   157   156   41.7    0.0   0.00   4.29   49.5   22.4    0.0    4.4   6.36   1.28    0.00    0.00   0.00   0.30   0.51   0.51   7.75  19.23
   17 089   158   157   42.5    0.0   0.00   4.17   50.4   22.8    0.0    4.2   6.36   1.23    0.00    0.00   0.03   0.35   0.58   0.58   7.98  19.67
   17 090   159   158   43.4    0.0   0.00   4.00   51.2   23.3    0.0    4.1   6.36   1.16    0.00    0.00   0.07   0.38   0.62   0.62   8.20  20.08
   17 091   160   159   44.1    0.0   0.00   3.86   52.2   23.6    0.0    3.9   6.36   1.11    0.00    0.00   0.15   0.43   0.68   0.68   8.41  20.47
   17 092   161   160   44.9    0.0   0.00   3.75   53.2   24.0    0.0    3.8   6.36   1.07    0.00    0.00   0.20   0.46   0.71   0.71   8.60  20.84
   17 093   162   161   45.5    0.0   0.00   3.66   54.1   24.3    0.0    3.7   6.36   1.04    0.00    0.00   0.24   0.50   0.75   0.75   8.77  21.18
   17 094   163   162   46.2    0.0   0.00   3.63   55.0   24.6    0.0    3.7   6.36   1.03    0.00    0.00   0.28   0.52   0.77   0.77   8.93  21.50
   17 095   164   163   46.8    0.0   0.00   3.58   55.8   24.9    0.0    3.7   6.36   1.02    0.00    0.00   0.29   0.53   0.78   0.78   9.07  21.79
   17 096   165   164   47.3    0.0   0.00   3.57   56.6   25.2    0.0    3.7   6.36   1.03    0.00    0.00   0.31   0.54   0.79   0.79   9.19  22.07
   17 097   166   165   47.8    0.0   0.00   3.51   57.3   25.5    0.0    3.6   6.36   1.01    0.00    0.00   0.30   0.53   0.78   0.78   9.30  22.32
   17 098   167   166   48.3    0.0   0.00   3.44   57.8   25.7    0.0    3.5   6.36   0.98    0.00    0.00   0.32   0.55   0.80   0.80   9.40  22.57
   17 099   168   167   48.8    0.0   0.00   3.36   58.2   25.9    0.0    3.4   6.36   0.95    0.00    0.00   0.35   0.57   0.81   0.81   9.49  22.81
   17 100   169   168   49.2    0.0   0.00   3.27   58.5   26.2    0.0    3.4   6.36   0.92    0.00    0.00   0.38   0.59   0.83   0.83   9.59  23.05
   17 101   170   169   49.7    0.0   0.00   3.26   58.8   26.4    0.0    3.3   6.36   0.92    0.00    0.00   0.42   0.61   0.85   0.85   9.69  23.29
   17 102   171   170   50.2    0.0   0.00   3.22   59.1   26.6    0.0    3.3   6.36   0.91    0.00    0.00   0.42   0.61   0.85   0.85   9.78  23.53
   17 103   172   171   50.7    0.0   0.00   3.17   59.3   26.9    0.0    3.2   6.36   0.90    0.00    0.00   0.43   0.62   0.86   0.86   9.87  23.77
   17 104   173   172   51.1    0.0   0.00   3.14   59.5   27.1    0.0    3.2   6.36   0.89    0.00    0.00   0.45   0.63   0.87   0.87   9.97  24.01
   17 105   174   173   51.6    0.0   0.00   3.10   59.6   27.3    0.0    3.2   6.36   0.88    0.00    0.00   0.46   0.64   0.87   0.87  10.06  24.24
   17 106   175   174   52.0    0.0   0.00   3.08   59.8   27.6    0.0    3.2   6.36   0.88    0.00    0.00   0.47   0.65   0.88   0.88  10.15  24.47
   17 107   176   175   52.5    0.0   0.00   3.08   60.4   27.8    0.0    3.2   6.36   0.88    0.00    0.00   0.48   0.65   0.88   0.88  10.23  24.70
   17 108   177   176   52.9    0.0   0.00   3.09   61.0   28.0    0.0    3.2   6.36   0.89    0.00    0.00   0.48   0.65   0.88   0.88  10.30  24.92
   17 109   178   177   53.3    0.0   0.00   3.10   61.6   28.2    0.0    3.2   6.36   0.90    0.00    0.00   0.47   0.65   0.88   0.88  10.36  25.11
   17 110   179   178   53.7    0.0   0.00   3.10   62.1   28.4    0.0    3.2   6.36   0.90    0.00    0.00   0.46   0.64   0.87   0.87  10.40  25.29
   17 111   180   179   54.0    0.0   0.00   3.09   62.6   28.5    0.0    3.2   6.36   0.90    0.00    0.00   0.45   0.63   0.87   0.87  10.43  25.46
   17 112   181   180   54.3    0.0   0.00   3.06   63.0   28.7    0.0    3.1   6.36   0.89    0.00    0.00   0.45   0.64   0.87   0.87  10.45  25.61
   17 113   182   181   54.6    0.0   0.00   3.05   63.4   28.8    0.0    3.1   6.36   0.89    0.00    0.00   0.46   0.64   0.87   0.87  10.47  25.76
   17 114   183   182   54.9    0.0   0.00   3.02   63.8   28.9    0.0    3.1   6.36   0.88    0.00    0.00   0.46   0.64   0.87   0.87  10.47  25.89
   17 115   184   183   55.1    0.0   0.00   2.99   64.2   29.1    0.0    3.1   6.36   0.87    0.00    0.00   0.47   0.65   0.88   0.88  10.48  26.03
   17 116   185   184   55.4    0.0   0.00   2.99   64.5   29.2    0.0    3.1   6.36   0.87    0.00    0.00   0.49   0.66   0.88   0.88  10.48  26.16
   17 117   186   185   55.6    0.0   0.00   3.00   64.8   29.3    0.0    3.1   6.36   0.87    0.00    0.00   0.48   0.66   0.88   0.88  10.47  26.27
   17 118   187   186   55.8    0.0   0.00   2.99   65.1   29.4    0.0    3.1   6.36   0.88    0.00    0.00   0.48   0.65   0.88   0.88  10.45  26.38
   17 119   188   187   56.0    0.0   0.00   2.97   65.4   29.5    0.0    3.0   6.36   0.87    0.00    0.00   0.47   0.65   0.88   0.88  10.43  26.49
   17 120   189   188   56.2    0.0   0.00   2.93   65.7   29.6    0.0    3.0   6.36   0.85    0.00    0.00   0.48   0.65   0.88   0.88  10.40  26.58
   17 121   190   189   56.4    0.0   0.00   2.90   65.9   29.7    0.0    3.0   6.36   0.84    0.00    0.00   0.49   0.66   0.89   0.89  10.37  26.66
   17 122   191   190   56.5    0.0   0.00   2.85   66.1   29.7    0.0    2.9   6.36   0.82    0.00    0.00   0.50   0.67   0.89   0.89  10.32  26.73
   17 123   192   191   56.6    0.0   0.00   2.81   66.3   29.8    0.0    2.9   6.36   0.80    0.00    0.00   0.52   0.68   0.90   0.90  10.26  26.79
   17 124   193   192   56.7    0.0   0.00   2.77   66.4   29.9    0.0    2.8   6.36   0.78    0.00    0.00   0.54   0.69   0.91   0.91  10.21  26.85
   17 125   194   193   56.9    0.0   0.00   2.73   66.6   29.9    0.0    2.8   6.36   0.77    0.00    0.00   0.55   0.70   0.91   0.91  10.16  26.91
   17 126   195   194   57.0    0.0   0.00   2.68   66.8   30.0    0.0    2.7   6.36   0.75    0.00    0.00   0.56   0.71   0.92   0.92  10.12  26.98
   17 127   196   195   57.2    0.0   0.00   2.64   67.0   30.1    0.0    2.7   6.36   0.74    0.00    0.00   0.58   0.72   0.92   0.92  10.09  27.06
   17 128   197   196   57.3    0.0   0.00   2.62   67.3   30.1    0.0    2.7   6.36   0.73    0.00    0.00   0.60   0.73   0.93   0.93  10.06  27.14
   17 129   198   197   57.5    0.0   0.00   2.60   67.5   30.2    0.0    2.7   6.36   0.72    0.00    0.00   0.61   0.74   0.93   0.93  10.03  27.22
   17 130   199   198   57.6    0.0   0.00   2.51   67.7   30.3    0.0    2.6   0.24   0.71    0.00    0.00   0.61   0.74   0.93   0.93  10.00  27.30
   17 131   200   199   57.8    0.0   0.00   2.45   68.0   30.4    0.0    2.5   0.16   0.70    0.00    0.00   0.65   0.77   0.95   0.95   9.96  27.39
   17 132   201   200   58.0    0.0   0.00   2.39   68.2   30.5    0.0    2.5   0.13   0.70    0.00    0.00   0.67   0.78   0.95   0.95   9.93  27.47
   17 133   202   201   58.2    0.0   0.00   2.34   68.5   30.5    0.1    2.5   0.12   0.69    0.00    0.00   0.69   0.79   0.96   0.96   9.91  27.55
   17 134   203   202   58.3    0.0   0.00   2.30   68.7   30.6    0.1    2.4   0.12   0.69    0.00    0.00   0.70   0.80   0.96   0.96   9.88  27.63
   17 135   204   203   58.5    0.0   0.00   2.26   69.0   30.7    0.1    2.4   0.12   0.68    0.00    0.00   0.71   0.80   0.96   0.96   9.85  27.72
   17 136   205   204   58.7    0.0   0.00   2.22   69.3   30.8    0.1    2.4   0.12   0.68    0.00    0.00   0.71   0.81   0.96   0.96   9.85  27.82
   17 137   206   205   59.0    0.0   0.00   2.17   69.6   30.9    0.1    2.3   0.13   0.67    0.00    0.00   0.72   0.81   0.97   0.97   9.85  27.92
   17 138   207   206   59.2    0.0   0.00   2.14   70.0   31.0    0.2    2.3   0.14   0.67    0.00    0.00   0.72   0.82   0.97   0.97   9.85  28.03
   17 139   208   207   59.5    0.0   0.00   2.12   70.3   31.1    0.2    2.3   0.15   0.67    0.00    0.00   0.72   0.82   0.97   0.97   9.86  28.14
   17 140   209   208   59.7    0.0   0.00   2.09   70.7   31.2    0.3    2.3   0.16   0.67    0.00    0.00   0.72   0.82   0.97   0.97   9.87  28.24
   17 141   210   209   59.9    0.0   0.00   2.06   71.0   31.3    0.3    2.2   0.17   0.67    0.00    0.00   0.73   0.82   0.97   0.97   9.89  28.34
   17 142   211   210   60.2    0.0   0.00   2.03   71.4   31.4    0.4    2.2   0.17   0.66    0.00    0.00   0.72   0.82   0.97   0.97   9.90  28.44
   17 143   212   211   60.4    0.0   0.00   2.00   71.7   31.5    0.4    2.2   0.18   0.66    0.00    0.00   0.72   0.81   0.96   0.96   9.92  28.54
   17 144   213   212   63.1    0.0   0.00   2.05   75.7   32.4    1.0    2.3   0.42   0.74    0.00    0.00   0.72   0.81   0.96   0.96  11.13  29.59
   17 145   214   213   65.2    0.0   0.00   2.08   79.0   33.2    1.6    2.3   0.57   0.80    0.00    0.00   0.62   0.75   0.94   0.94  12.11  30.42
   17 146   215   214   66.7    0.0   0.00   2.06   81.2   33.7    2.0    2.3   0.61   0.83    0.00    0.00   0.55   0.70   0.91   0.91  12.72  30.95
   17 147   216   215   67.5    0.0   0.00   2.01   82.5   34.0    2.3    2.2   0.60   0.84    0.00    0.00   0.53   0.68   0.90   0.90  13.03  31.25
   17 148   217   216   68.0    0.0   0.00   1.97   83.2   34.1    2.5    2.2   0.56   0.83    0.00    0.00   0.52   0.68   0.90   0.90  13.16  31.41
   17 149   218   217   68.4    0.0   0.00   1.92   83.7   34.2    2.7    2.2   0.53   0.82    0.00    0.00   0.52   0.68   0.90   0.90  13.22  31.51
   17 150   219   218   72.1    0.0   0.00   1.98   89.7   34.9    4.8    2.2   0.80   0.95    0.00    0.00   0.50   0.67   0.89   0.89  15.28  32.43
   17 151   220   219   75.7    0.0   0.00   2.00   95.7   35.4    7.2    2.3   0.97   1.07    0.00    0.00   0.28   0.52   0.77   0.77  17.51  33.10
   17 152   221   220   78.6    0.0   0.00   1.98  100.8   35.5    9.7    2.3   1.05   1.17    0.00    0.00   0.09   0.40   0.64   0.64  19.47  33.37
   17 153   222   221   80.2    0.0   0.00   1.92  103.5   35.5   11.3    2.3   1.01   1.21    0.00    0.00   0.00   0.31   0.52   0.52  20.39  33.37
   17 154   223   222   83.9    0.0   0.00   1.92  109.5   35.5   15.0    2.3   1.14   1.31    0.00    0.00   0.00   0.28   0.48   0.48  22.45  33.37
   17 155   224   223   86.3    0.0   0.00   1.91  113.3   35.5   17.4    2.3   1.19   1.37    0.00    0.00   0.00   0.20   0.36   0.36  23.59  33.37
   17 156   225   224   89.0    0.0   0.00   1.91  117.4   35.5   20.1    2.3   1.25   1.43    0.00    0.00   0.00   0.12   0.22   0.22  24.73  33.37
   17 157   226   225   89.6    0.0   0.00   1.88  118.2   35.5   20.7    2.3   1.21   1.43    0.00    0.00   0.00   0.05   0.09   0.09  24.75  33.37
   17 158   227   226   90.2    0.0   0.00   1.82  119.0   35.5   21.3    2.3   1.13   1.41    0.00    0.00   0.00   0.03   0.05   0.05  24.76  33.37
   17 159   228   227   90.7    0.0   0.00   1.75  119.7   35.5   21.8    2.3   1.03   1.39    0.00    0.00   0.00   0.04   0.08   0.08  24.71  33.37
   17 160   229   228   91.2    0.0   0.00   1.70  120.4   35.5   22.3    2.3   0.96   1.37    0.00    0.00   0.00   0.06   0.12   0.12  24.64  33.37
   17 161   230   229   91.6    0.0   0.00   1.64  121.1   35.5   22.8    2.3   0.90   1.35    0.00    0.00   0.00   0.05   0.10   0.10  24.57  33.37
   17 162   231   230   92.1    0.0   0.00   1.58  121.7   35.5   23.2    2.3   0.84   1.33    0.00    0.00   0.00   0.05   0.10   0.10  24.49  33.37
   17 163   232   231   92.6    0.0   0.00   1.54  122.3   35.5   23.7    2.3   0.80   1.32    0.00    0.00   0.00   0.04   0.07   0.07  24.39  33.37
   17 164   233   232   95.6    0.0   0.00   1.53  126.4   35.5   26.7    2.3   0.84   1.36    0.00    0.00   0.00   0.00   0.00   0.00  25.16  33.37
   17 165   234   233   97.0    0.0   0.00   1.50  128.2   35.5   28.1    2.3   0.82   1.37    0.00    0.00   0.00   0.00   0.00   0.00  25.38  33.37
   17 166   235   234  101.4    0.0   0.00   1.52  134.2   35.5   32.5    2.3   0.90   1.43    0.00    0.00   0.00   0.00   0.00   0.00  26.71  33.37
   17 167   236   235  103.1    0.0   0.00   1.50  136.6   35.5   34.2    2.3   0.89   1.45    0.00    0.00   0.00   0.00   0.00   0.00  27.12  33.37
   17 168   237   236  103.8    0.0   0.00   1.46  137.7   35.5   34.9    2.3   0.87   1.45    0.00    0.00   0.00   0.00   0.00   0.00  27.15  33.37
   17 169   238   237  104.3    0.0   0.00   1.42  138.3   35.5   35.4    2.3   0.83   1.44    0.00    0.00   0.00   0.00   0.00   0.00  27.07  33.37
   17 170   239   238  104.6    0.0   0.00   1.39  138.6   35.5   35.7    2.3   0.80   1.43    0.00    0.00   0.00   0.00   0.00   0.00  26.98  33.37
[...]
   17 087   156   155    8.3    0.0   0.00   2.84    8.1    5.7    0.0    3.2   6.36   0.74    0.00    0.00   0.75   0.83   0.97   0.97   0.76   2.63
   17 088   157   156    8.6    0.0   0.00   2.80    8.3    5.8    0.0    3.2   6.36   0.74    0.00    0.00   0.76   0.84   0.97   0.97   0.79   2.75
   17 089   158   157    8.8    0.0   0.00   2.77    8.6    5.9    0.0    3.2   6.36   0.73    0.00    0.00   0.77   0.85   0.98   0.98   0.82   2.87
   17 090   159   158    9.1    0.0   0.00   2.73    8.9    6.1    0.0    3.1   6.36   0.73    0.00    0.00   0.78   0.85   0.98   0.98   0.86   3.00
   17 091   160   159    9.4    0.0   0.00   2.72    9.3    6.2    0.0    3.1   6.36   0.74    0.00    0.00   0.79   0.86   0.98   0.98   0.89   3.14
   17 092   161   160    9.6    0.0   0.00   2.71    9.6    6.3    0.0    3.1   6.36   0.74    0.00    0.00   0.79   0.86   0.98   0.98   0.93   3.28
   17 093   162   161    9.9    0.0   0.00   2.72    9.9    6.5    0.0    3.1   6.36   0.76    0.00    0.00   0.79   0.86   0.98   0.98   0.97   3.43
   17 094   163   162   10.2    0.0   0.00   2.73   10.3    6.6    0.0    3.1   6.36   0.77    0.00    0.00   0.78   0.85   0.98   0.98   1.01   3.58
   17 095   164   163   10.5    0.0   0.00   2.73   10.6    6.8    0.0    3.1   6.36   0.78    0.00    0.00   0.76   0.84   0.98   0.98   1.05   3.73
   17 096   165   164   10.8    0.0   0.00   2.77   11.0    6.9    0.0    3.1   6.36   0.79    0.00    0.00   0.76   0.84   0.97   0.97   1.09   3.88
   17 097   166   165   11.1    0.0   0.00   2.75   11.4    7.1    0.0    3.1   6.36   0.78    0.00    0.00   0.74   0.82   0.97   0.97   1.14   4.04
   17 098   167   166   11.5    0.0   0.00   2.72   11.7    7.2    0.0    3.0   6.36   0.77    0.00    0.00   0.74   0.83   0.97   0.97   1.19   4.21
   17 099   168   167   11.8    0.0   0.00   2.69   12.1    7.4    0.0    3.0   6.36   0.75    0.00    0.00   0.75   0.83   0.97   0.97   1.25   4.38
   17 100   169   168   12.2    0.0   0.00   2.65   12.5    7.6    0.0    2.9   6.36   0.76    0.00    0.00   0.76   0.84   0.97   0.97   1.31   4.58
   17 101   170   169   12.6    0.0   0.00   2.68   12.9    7.8    0.0    3.0   6.36   0.76    0.00    0.00   0.77   0.85   0.98   0.98   1.38   4.77
   17 102   171   170   13.0    0.0   0.00   2.68   13.3    8.0    0.0    3.0   6.36   0.76    0.00    0.00   0.75   0.83   0.97   0.97   1.46   4.98
   17 103   172   171   13.4    0.0   0.00   2.69   13.7    8.2    0.0    3.0   6.36   0.78    0.00    0.00   0.74   0.83   0.97   0.97   1.53   5.20
   17 104   173   172   13.9    0.0   0.00   2.70   14.1    8.4    0.0    3.0   6.36   0.80    0.00    0.00   0.73   0.82   0.97   0.97   1.60   5.42
   17 105   174   173   14.3    0.0   0.00   2.69   14.5    8.6    0.0    2.9   6.36   0.81    0.00    0.00   0.72   0.81   0.96   0.96   1.67   5.65
   17 106   175   174   14.8    0.0   0.00   2.71   14.8    8.9    0.0    2.9   6.36   0.83    0.00    0.00   0.71   0.81   0.96   0.96   1.74   5.88
   17 107   176   175   15.2    0.0   0.00   2.75   15.4    9.1    0.0    3.0   6.36   0.86    0.00    0.00   0.70   0.80   0.96   0.96   1.81   6.11
   17 108   177   176   15.6    0.0   0.00   2.80   15.9    9.3    0.0    3.0   6.36   0.88    0.00    0.00   0.67   0.78   0.95   0.95   1.89   6.33
   17 109   178   177   16.1    0.0   0.00   2.85   16.4    9.5    0.0    3.1   6.36   0.90    0.00    0.00   0.64   0.76   0.94   0.94   1.97   6.55
   17 110   179   178   16.5    0.0   0.00   2.88   16.9    9.7    0.0    3.1   6.36   0.91    0.00    0.00   0.61   0.74   0.93   0.93   2.05   6.76
   17 111   180   179   16.9    0.0   0.00   2.88   17.4    9.9    0.0    3.1   6.36   0.89    0.00    0.00   0.59   0.72   0.92   0.92   2.13   6.97
   17 112   181   180   17.3    0.0   0.00   2.86   18.0   10.1    0.0    3.1   6.36   0.90    0.00    0.00   0.58   0.72   0.92   0.92   2.20   7.19
   17 113   182   181   17.8    0.0   0.00   2.87   18.5   10.3    0.0    3.1   6.36   0.90    0.00    0.00   0.59   0.72   0.92   0.92   2.28   7.41
   17 114   183   182   18.2    0.0   0.00   2.84   19.0   10.5    0.0    3.0   6.36   0.87    0.00    0.00   0.57   0.71   0.92   0.92   2.37   7.62
   17 115   184   183   18.6    0.0   0.00   2.82   19.6   10.7    0.0    3.0   6.36   0.88    0.00    0.00   0.58   0.72   0.92   0.92   2.45   7.85
   17 116   185   184   19.1    0.0   0.00   2.86   20.2   11.0    0.0    3.0   6.36   0.90    0.00    0.00   0.59   0.73   0.93   0.93   2.54   8.08
   17 117   186   185   19.5    0.0   0.00   2.89   20.7   11.2    0.0    3.1   6.36   0.92    0.00    0.00   0.57   0.71   0.92   0.92   2.62   8.28
   17 118   187   186   19.8    0.0   0.00   2.91   21.1   11.3    0.0    3.1   6.36   0.92    0.00    0.00   0.54   0.70   0.91   0.91   2.69   8.47
   17 119   188   187   20.2    0.0   0.00   2.87   21.5   11.5    0.0    3.0   6.36   0.89    0.00    0.00   0.52   0.68   0.90   0.90   2.75   8.64
   17 120   189   188   20.5    0.0   0.00   2.82   22.0   11.7    0.0    3.0   6.36   0.85    0.00    0.00   0.54   0.70   0.91   0.91   2.83   8.81
   17 121   190   189   20.8    0.0   0.00   2.77   22.4   11.8    0.0    2.9   6.36   0.83    0.00    0.00   0.57   0.71   0.92   0.92   2.89   8.98
   17 122   191   190   21.1    0.0   0.00   2.71   22.8   12.0    0.0    2.9   6.36   0.80    0.00    0.00   0.59   0.73   0.92   0.92   2.95   9.14
   17 123   192   191   21.5    0.0   0.00   2.65   23.2   12.1    0.0    2.8   6.36   0.79    0.00    0.00   0.61   0.74   0.93   0.93   3.01   9.30
   17 124   193   192   21.8    0.0   0.00   2.61   23.6   12.3    0.0    2.8   6.36   0.77    0.00    0.00   0.64   0.76   0.94   0.94   3.08   9.45
   17 125   194   193   22.1    0.0   0.00   2.56   24.0   12.4    0.0    2.7   6.36   0.76    0.00    0.00   0.66   0.77   0.95   0.95   3.14   9.61
   17 126   195   194   22.4    0.0   0.00   2.50   24.4   12.6    0.0    2.6   6.36   0.73    0.00    0.00   0.68   0.79   0.95   0.95   3.20   9.76
   17 127   196   195   22.7    0.0   0.00   2.48   24.8   12.7    0.0    2.6   6.36   0.74    0.00    0.00   0.71   0.80   0.96   0.96   3.27   9.92
   17 128   197   196   23.0    0.0   0.00   2.48   25.2   12.9    0.0    2.6   6.36   0.75    0.00    0.00   0.71   0.81   0.96   0.96   3.32  10.07
   17 129   198   197   23.3    0.0   0.00   2.46   25.6   13.0    0.0    2.6   6.36   0.74    0.00    0.00   0.71   0.80   0.96   0.96   3.38  10.21
   17 130   199   198   23.5    0.0   0.00   2.39   25.9   13.1    0.0    2.5   0.58   0.73    0.00    0.00   0.71   0.80   0.96   0.96   3.43  10.35
   17 131   200   199   23.8    0.0   0.00   2.34   26.3   13.3    0.1    2.5   0.43   0.73    0.00    0.00   0.74   0.82   0.97   0.97   3.47  10.49
   17 132   201   200   24.1    0.0   0.00   2.30   26.7   13.4    0.1    2.5   0.38   0.73    0.00    0.00   0.75   0.83   0.97   0.97   3.51  10.62
   17 133   202   201   24.4    0.0   0.00   2.26   27.0   13.5    0.1    2.4   0.37   0.73    0.00    0.00   0.76   0.84   0.97   0.97   3.56  10.75
   17 134   203   202   24.6    0.0   0.00   2.23   27.3   13.6    0.1    2.4   0.36   0.73    0.00    0.00   0.76   0.84   0.97   0.97   3.60  10.86
   17 135   204   203   24.9    0.0   0.00   2.20   27.7   13.7    0.1    2.4   0.36   0.73    0.00    0.00   0.76   0.84   0.98   0.98   3.64  10.98
   17 136   205   204   25.1    0.0   0.00   2.16   28.0   13.9    0.2    2.4   0.36   0.72    0.00    0.00   0.77   0.84   0.98   0.98   3.68  11.10
   17 137   206   205   25.4    0.0   0.00   2.12   28.4   14.0    0.2    2.3   0.36   0.72    0.00    0.00   0.77   0.85   0.98   0.98   3.73  11.22
   17 138   207   206   25.7    0.0   0.00   2.09   28.7   14.1    0.3    2.3   0.38   0.72    0.00    0.00   0.78   0.85   0.98   0.98   3.78  11.34
   17 139   208   207   25.9    0.0   0.00   2.07   29.1   14.2    0.3    2.3   0.40   0.72    0.00    0.00   0.77   0.85   0.98   0.98   3.84  11.46
   17 140   209   208   26.2    0.0   0.00   2.04   29.5   14.3    0.4    2.3   0.40   0.72    0.00    0.00   0.77   0.85   0.98   0.98   3.89  11.58
   17 141   210   209   26.5    0.0   0.00   2.02   29.8   14.4    0.4    2.3   0.42   0.73    0.00    0.00   0.78   0.85   0.98   0.98   3.94  11.69
   17 142   211   210   26.8    0.0   0.00   1.99   30.2   14.5    0.5    2.2   0.42   0.73    0.00    0.00   0.77   0.85   0.98   0.98   4.00  11.80
   17 143   212   211   27.0    0.0   0.00   1.96   30.6   14.6    0.5    2.2   0.43   0.73    0.00    0.00   0.77   0.84   0.98   0.98   4.06  11.91
   17 144   213   212   27.3    0.0   0.00   1.94   30.9   14.7    0.6    2.2   0.44   0.73    0.00    0.00   0.77   0.84   0.98   0.98   4.12  12.02
   17 145   214   213   27.6    0.0   0.00   1.91   31.3   14.8    0.7    2.2   0.45   0.73    0.00    0.00   0.76   0.84   0.97   0.97   4.18  12.12
   17 146   215   214   27.9    0.0   0.00   1.88   31.7   14.9    0.8    2.2   0.45   0.73    0.00    0.00   0.75   0.84   0.97   0.97   4.24  12.23
   17 147   216   215   28.2    0.0   0.00   1.85   32.1   14.9    0.9    2.2   0.45   0.73    0.00    0.00   0.76   0.84   0.97   0.97   4.31  12.33
   17 148   217   216   28.5    0.0   0.00   1.82   32.5   15.0    1.0    2.1   0.46   0.73    0.00    0.00   0.75   0.83   0.97   0.97   4.39  12.43
   17 149   218   217   28.8    0.0   0.00   1.79   32.8   15.1    1.1    2.1   0.47   0.73    0.00    0.00   0.73   0.82   0.97   0.97   4.47  12.52
   17 150   219   218   29.1    0.0   0.00   1.77   33.3   15.2    1.3    2.1   0.46   0.74    0.00    0.00   0.70   0.80   0.96   0.96   4.57  12.60
   17 151   220   219   29.4    0.0   0.00   1.73   33.8   15.2    1.5    2.1   0.45   0.75    0.00    0.00   0.64   0.76   0.94   0.94   4.68  12.68
   17 152   221   220   29.7    0.0   0.00   1.69   34.3   15.2    1.7    2.1   0.44   0.75    0.00    0.00   0.59   0.72   0.92   0.92   4.81  12.74
   17 153   222   221   30.0    0.0   0.00   1.65   34.8   15.3    2.0    2.1   0.44   0.76    0.00    0.00   0.54   0.69   0.91   0.91   4.96  12.78
   17 154   223   222   30.4    0.0   0.00   1.61   35.4   15.3    2.3    2.1   0.44   0.77    0.00    0.00   0.51   0.67   0.89   0.89   5.13  12.81
   17 155   224   223   30.8    0.0   0.00   1.59   36.0   15.3    2.7    2.1   0.47   0.79    0.00    0.00   0.51   0.67   0.89   0.89   5.31  12.83
   17 156   225   224   31.1    0.0   0.00   1.56   36.6   15.3    3.0    2.1   0.48   0.81    0.00    0.00   0.45   0.63   0.87   0.87   5.50  12.83
   17 157   226   225   31.5    0.0   0.00   1.55   37.2   15.3    3.4    2.1   0.51   0.84    0.00    0.00   0.43   0.62   0.86   0.86   5.69  12.83
   17 158   227   226   31.9    0.0   0.00   1.51   37.9   15.3    3.8    2.1   0.51   0.84    0.00    0.00   0.38   0.59   0.83   0.83   5.87  12.83
   17 159   228   227   32.3    0.0   0.00   1.47   38.5   15.3    4.2    2.1   0.51   0.85    0.00    0.00   0.38   0.59   0.83   0.83   6.05  12.83
   17 160   229   228   32.8    0.0   0.00   1.43   39.2   15.3    4.7    2.1   0.51   0.85    0.00    0.00   0.38   0.59   0.83   0.83   6.21  12.83
   17 161   230   229   33.2    0.0   0.00   1.39   39.8   15.3    5.1    2.1   0.50   0.85    0.00    0.00   0.35   0.57   0.81   0.81   6.37  12.83
   17 162   231   230   33.6    0.0   0.00   1.35   40.4   15.3    5.5    2.1   0.49   0.85    0.00    0.00   0.33   0.55   0.80   0.80   6.52  12.83
   17 163   232   231   34.0    0.0   0.00   1.32   41.1   15.3    5.9    2.1   0.49   0.86    0.00    0.00   0.30   0.53   0.78   0.78   6.67  12.83
   17 164   233   232   34.5    0.0   0.00   1.27   41.7   15.3    6.4    2.1   0.48   0.86    0.00    0.00   0.20   0.47   0.72   0.72   6.82  12.83
   17 165   234   233   34.9    0.0   0.00   1.23   42.4   15.3    6.8    2.1   0.46   0.87    0.00    0.00   0.12   0.41   0.65   0.65   6.96  12.83
   17 166   235   234   35.3    0.0   0.00   1.19   43.1   15.3    7.3    2.1   0.45   0.87    0.00    0.00   0.00   0.33   0.55   0.55   7.11  12.83
   17 167   236   235   35.8    0.0   0.00   1.15   43.7   15.3    7.7    2.1   0.44   0.88    0.00    0.00   0.00   0.24   0.42   0.42   7.26  12.83
   17 168   237   236   36.2    0.0   0.00   1.12   44.4   15.3    8.2    2.1   0.43   0.89    0.00    0.00   0.00   0.15   0.27   0.27   7.41  12.83
   17 169   238   237   36.7    0.0   0.00   1.08   45.1   15.3    8.6    2.1   0.42   0.90    0.00    0.00   0.00   0.03   0.05   0.05   7.56  12.83
   17 170   239   238   37.1    0.0   0.00   1.05   45.8   15.3    9.1    2.1   0.42   0.91    0.00    0.00   0.00   0.00   0.00   0.00   7.72  12.83
   17 171   240   239   37.6    0.0   0.00   1.03   46.4   15.3    9.5    2.1   0.41   0.92    0.00    0.00   0.00   0.00   0.00   0.00   7.88  12.83
   17 172   241   240   38.0    0.0   0.00   1.01   46.8   15.3    9.9    2.1   0.41   0.93    0.00    0.00   0.00   0.00   0.00   0.00   8.03  12.83
   17 173   242   241   38.3    0.0   0.00   0.99   47.4   15.3   10.2    2.1   0.41   0.95    0.00    0.00   0.00   0.00   0.00   0.00   8.20  12.83
   17 174   243   242   38.6   12.1   2.24   0.77   48.0   11.5   10.5    1.6   0.51   0.97    0.00    0.00   0.00   0.00   0.00   0.00   8.41   4.50
   17 175   244   243   38.9   14.5   1.97   0.73   48.6    9.2   10.7    1.3   0.54   0.99    0.00    0.00   0.00   0.00   0.00   0.00   8.65   4.48
   17 176   245   244   39.1   16.1   1.86   0.70   49.2    7.6   10.9    1.1   0.57   1.02    0.00    0.00   0.00   0.00   0.00   0.00   8.92   4.45
   17 177   246   245   39.3   17.1   1.80   0.67   49.8    6.6   11.1    0.9   0.57   1.05    0.00    0.00   0.00   0.10   0.19   0.19   9.24   4.40
   17 178   247   246   39.4   17.8   1.77   0.65   50.3    6.0   11.3    0.9   0.57   1.08    0.00    0.00   0.05   0.36   0.60   0.60   9.55   4.34
   17 179   248   247   39.6   18.2   1.75   0.64   51.0    5.6   11.5    0.8   0.57   1.12    0.00    0.00   0.24   0.49   0.74   0.74   9.92   4.29
   17 180   249   248   39.8   18.6   1.74   0.62   51.7    5.3   11.7    0.8   0.57   1.17    0.00    0.00   0.29   0.53   0.77   0.77  10.33   4.23
   17 181   250   249   40.0   19.0   1.73   0.61   52.5    5.1   11.9    0.7   0.57   1.22    0.00    0.00   0.22   0.48   0.73   0.73  10.77   4.16
   17 182   251   250   40.2   19.2   1.72   0.60   53.2    4.9   12.1    0.7   0.57   1.27    0.00    0.00   0.27   0.52   0.77   0.77  11.20   4.10
   17 183   252   251   40.4   19.5   1.71   0.60   53.9    4.7   12.2    0.7   0.57   1.32    0.00    0.00   0.16   0.44   0.69   0.69  11.63   4.03
   17 184   253   252   40.7   19.8   1.70   0.59   54.7    4.5   12.4    0.6   0.56   1.35    0.00    0.00   0.00   0.28   0.48   0.48  11.96   3.95
   17 185   254   253   41.0   20.3   1.68   0.58   55.4    4.3   12.5    0.6   0.56   1.37    0.00    0.00   0.00   0.19   0.35   0.35  12.21   3.86
   17 186   255   254   41.4   20.8   1.66   0.57   56.1    4.2   12.6    0.6   0.56   1.39    0.00    0.00   0.00   0.01   0.02   0.02  12.39   3.78
   17 187   256   255   41.8   21.5   1.65   0.56   56.8    4.1   12.5    0.6   0.55   1.40    0.00    0.00   0.00   0.00   0.00   0.00  12.56   3.69
   17 188   257   256   42.2   22.3   1.63   0.55   57.5    4.0   12.4    0.6   0.55   1.42    0.00    0.00   0.00   0.00   0.00   0.00  12.73   3.60
   17 189   258   257   42.7   23.2   1.61   0.54   58.2    3.8   12.1    0.5   0.54   1.44    0.00    0.00   0.00   0.00   0.00   0.00  12.86   3.51
   17 190   259   258   43.2   24.2   1.59   0.53   58.9    3.7   11.8    0.5   0.53   1.45    0.00    0.00   0.00   0.00   0.00   0.00  12.96   3.43
   17 191   260   259   43.7   25.3   1.57   0.52   59.7    3.6   11.5    0.5   0.53   1.46    0.00    0.00   0.00   0.00   0.00   0.00  13.07   3.34
   17 192   261   260   44.3   26.4   1.55   0.51   60.6    3.6   11.1    0.5   0.52   1.49    0.00    0.00   0.00   0.00   0.00   0.00  13.27   3.26
   17 193   262   261   45.0   27.7   1.53   0.50   61.7    3.5   10.7    0.5   0.51   1.52    0.00    0.00   0.00   0.00   0.00   0.00  13.52   3.18
   17 194   263   262   45.8   29.0   1.51   0.49   63.0    3.4   10.2    0.5   0.51   1.56    0.00    0.00   0.00   0.00   0.00   0.00  13.89   3.11
   17 195   264   263   46.6   30.5   1.50   0.49   64.0    3.3    9.8    0.5   0.50   1.57    0.00    0.00   0.00   0.00   0.00   0.00  13.89   3.04
   17 196   265   264   47.6   32.0   1.48   0.48   65.3    3.2    9.4    0.5   0.50   1.60    0.00    0.00   0.00   0.00   0.00   0.00  14.10   2.98
   17 197   266   265   48.6   33.6   1.47   0.47   66.6    3.2    8.9    0.4   0.50   1.62    0.00    0.00   0.00   0.00   0.00   0.00  14.26   2.92
   17 198   267   266   49.6   35.3   1.45   0.47   67.7    3.1    8.4    0.4   0.49   1.62    0.00    0.00   0.00   0.00   0.00   0.00  14.20   2.85
   17 199   268   267   50.7   37.0   1.44   0.46   68.8    3.0    7.9    0.4   0.49   1.61    0.00    0.00   0.00   0.00   0.00   0.00  14.04   2.78
   17 200   269   268   51.7   38.7   1.43   0.45   69.8    2.9    7.4    0.4   0.49   1.60    0.00    0.00   0.00   0.00   0.00   0.00  13.84   2.70
   17 201   270   269   52.7   40.5   1.42   0.44   70.7    2.9    6.8    0.4   0.48   1.59    0.00    0.00   0.00   0.00   0.00   0.00  13.63   2.63
   17 202   271   270   53.7   42.1   1.42   0.43   71.6    2.8    6.2    0.4   0.47   1.58    0.00    0.00   0.00   0.00   0.00   0.00  13.42   2.55
   17 203   272   271   54.6   43.7   1.45   0.40   72.6    2.7    5.7    0.4   0.43   1.59    0.00    0.00   0.00   0.00   0.00   0.00  13.43   2.48
   17 204   273   272   55.2   44.9   1.48   0.38   73.5    2.6    5.3    0.4   0.40   1.62    0.00    0.00   0.00   0.00   0.00   0.00  13.55   2.42
   17 205   274   273   55.7   45.7   1.49   0.37   74.5    2.6    5.0    0.4   0.38   1.69    0.00    0.00   0.00   0.00   0.00   0.00  13.95   2.40
   17 206   275   274   56.3   46.6   1.51   0.36   75.1    2.6    4.8    0.4   0.36   1.69    0.00    0.00   0.00   0.00   0.00   0.00  13.80   2.36
   17 207   276   275   56.6   47.1   1.52   0.36   75.4    2.5    4.7    0.4   0.36   1.69    0.00    0.00   0.00   0.00   0.00   0.00  13.66   2.32
   17 208   277   276   57.1   47.7   1.53   0.35   75.9    2.5    4.6    0.3   0.35   1.69    0.00    0.00   0.00   0.00   0.00   0.00  13.52   2.28
   17 209   278   277   57.8   48.5   1.55   0.34   76.6    2.4    4.5    0.3   0.34   1.68    0.00    0.00   0.00   0.00   0.00   0.00  13.37   2.24
   17 210   279   278   58.3   49.3   1.56   0.34   77.1    2.4    4.4    0.3   0.34   1.68    0.00    0.00   0.00   0.00   0.00   0.00  13.23   2.19
   17 211   280   279   58.5   49.7   1.57   0.33   77.3    2.3    4.3    0.3   0.33   1.68    0.00    0.00   0.00   0.00   0.00   0.00  13.10   2.14
   17 212   281   280   58.6   50.0   1.58   0.32   77.3    2.3    4.2    0.3   0.32   1.68    0.00    0.00   0.00   0.00   0.00   0.00  12.97   2.09
   17 213   282   281   58.6   50.0   1.58   0.32   77.3    2.3    4.2    0.3   0.32   1.68    0.00    0.00   0.00   0.00   0.00   0.00  12.84   2.08
   17 214   283   282   58.6   50.0   1.58   0.32   77.3    2.3    4.2    0.3   0.32   1.68    0.00    0.00   0.00   0.00   0.00   0.00  12.71   2.08
   17 215   284   283   58.6   50.0   1.58   0.32   77.3    2.3    4.2    0.3   0.32   1.68    0.00    0.00   0.00   0.00   0.00   0.00  12.71   2.08
   17 216   285   284   58.6   50.0   1.58   0.32   77.3    2.3    4.2    0.3   0.32   1.68    0.00    0.00   0.00   0.00   0.00   0.00  12.71   2.08
   17 217   286   285   58.6   50.0   1.58   0.32   77.3    2.3    4.2    0.3   0.32   1.68    0.00    0.00   0.00   0.00   0.00   0.00  12.71   2.08
   17 218   287   286   58.6   50.0   1.58   0.32   77.3    2.3    4.2    0.3   0.32   1.68    0.00    0.00   0.00   0.00   0.00   0.00  12.71   2.08
   17 219   288   287   58.6   50.0   1.58   0.32   77.3    2.3    4.2    0.3   0.32   1.68    0.00    0.00   0.00   0.00   0.00   0.00  12.71   2.08
