*GROWTH ASPECTS OUTPUT FILE

*DSSAT Cropping System Model Ver. 4.8.5.000 -release  FEB 02, 2026 11:47:14

*RUN   1        : 1                         WHAPS048 TUDU1701    1
 MODEL          : WHAPS048 - Wheat
 EXPERIMENT     : TUDU1701 WH
 DATA PATH      :
 TREATMENT  1   : 1                         WHAPS048
  
!                                                                                                                                                                                                                                             Root Dens. (cm/cm3) by soil depth (cm):
!                                                                                                                                                                                                                                             0-5    5-15   15-20   20-30   30-40   40-50   50-60   60-70   70-90  90-210
@YEAR DOY   DAS   DAP    DCCD  GSTD   LAID   LWAD   SWAD   GWAD   RWAD   VWAD   CWAD   G#AD   G#AD2  GWGD   HIAD   SHAD   WSPD   WSGD   SLFT   NSTD   EWSD  PST1A  PST2A   KSTD   LN%D   TPSM   HIPD   PWDD   PWTD     SLAD   CHTD   CWID   RDPD    RL1D    RL2D    RL3D    RL4D    RL5D    RL6D    RL7D    RL8D    RL9D   RL10D   CDAD   LDAD   SDAD   SNW0C   SNW1C    DTTD   SUMDTT
   16 298     1     0   0.000     8  0.000      0      0      0      0      0      0      0      0    0.0  0.000      0   0.00   0.00   0.00   0.00   0.00   0.00   0.00   1.00   0.00    0.0   0.00      0      0      0.0   0.00   0.00 0.0250   0.000   0.000   0.000   0.000   0.000   0.000   0.000   0.000   0.000   0.000      0      0      0       0       0  12.000    0.000
   16 299     2     1   0.000     8  0.000      0      0      0      0      0      0      0      0    0.0  0.000      0   0.00   0.00   0.00   0.00   0.00   0.00   0.00   1.00   0.00    0.0   0.00      0      0      0.0   0.00   0.00 0.0250   0.000   0.000   0.000   0.000   0.000   0.000   0.000   0.000   0.000   0.000      0      0      0       0       0  10.500   10.500
   16 300     3     2   1.145     9  0.000      0      0      0      0      0      0      0      0    0.0  0.000      0   0.00   0.00   0.00   0.00   0.00   0.00   0.00   1.00   0.00    0.0   0.00      0      0      0.0   0.00   0.00 0.0250   0.000   0.000   0.000   0.000   0.000   0.000   0.000   0.000   0.000   0.000      0      0      0       0       0   7.500    7.500
   16 301     4     3   2.061     9  0.000      0      0      0      0      0      0      0      0    0.0  0.000      0   0.00   0.00   0.00   0.00   0.00   0.00   0.00   1.00   0.00    0.0   0.00      0      0      0.0   0.00   0.00 0.0325   0.000   0.000   0.000   0.000   0.000   0.000   0.000   0.000   0.000   0.000      0      0      0       0       0   6.000   13.500
   16 302     5     4   2.901     9  0.000      0      0      0      0      0      0      0      0    0.0  0.000      0   0.00   0.00   0.00   0.00   0.00   0.00   0.00   1.00   0.00    0.0   0.00      0      0      0.0   0.00   0.00 0.0385   0.000   0.000   0.000   0.000   0.000   0.000   0.000   0.000   0.000   0.000      0      0      0       0       0   5.500   19.000
   16 303     6     5   3.893     9  0.000      0      0      0      0      0      0      0      0    0.0  0.000      0   0.00   0.00   0.00   0.00   0.00   0.00   0.00   1.00   0.00    0.0   0.00      0      0      0.0   0.00   0.00 0.0440   0.000   0.000   0.000   0.000   0.000   0.000   0.000   0.000   0.000   0.000      0      0      0       0       0   6.500   25.500
   16 304     7     6   4.733     9  0.000      0      0      0      0      0      0      0      0    0.0  0.000      0   0.00   0.00   0.00   0.00   0.00   0.00   0.00   1.00   0.00    0.0   0.00      0      0      0.0   0.00   0.00 0.0500   0.000   0.000   0.000   0.000   0.000   0.000   0.000   0.000   0.000   0.000      0      0      0       0       0   5.500   31.000
   16 305     8     7   5.496     9  0.000      0      0      0      0      0      0      0      0    0.0  0.000      0   0.00   0.00   0.00   0.00   0.00   0.00   0.00   1.00   0.00    0.0   0.00      0      0      0.0   0.00   0.00 0.0500   0.000   0.000   0.000   0.000   0.000   0.000   0.000   0.000   0.000   0.000      0      0      0       0       0   5.000   36.000
   16 306     9     8   5.954     9  0.000      0      0      0      0      0      0      0      0    0.0  0.000      0   0.00   0.00   0.00   0.00   0.00   0.00   0.00   1.00   0.00    0.0   0.00      0      0      0.0   0.00   0.00 0.0500   0.000   0.000   0.000   0.000   0.000   0.000   0.000   0.000   0.000   0.000      0      0      0       0       0   3.000   39.000
   16 307    10     9   6.794     9  0.000      0      0      0      0      0      0      0      0    0.0  0.000      0   0.00   0.00   0.00   0.00   0.00   0.00   0.00   1.00   0.00    0.0   0.00      0      0      0.0   0.00   0.00 0.0500   0.000   0.000   0.000   0.000   0.000   0.000   0.000   0.000   0.000   0.000      0      0      0       0       0   5.500   44.500
   16 308    11    10   7.496     9  0.000      0      0      0      0      0      0      0      0    0.0  0.000      0   0.00   0.00   0.00   0.00   0.00   0.00   0.00   1.00   0.00    0.0   0.00      0      0      0.0   0.00   0.00 0.0500   0.000   0.000   0.000   0.000   0.000   0.000   0.000   0.000   0.000   0.000      0      0      0       0       0   4.597   49.097
   16 309    12    11   8.136     9  0.000      0      0      0      0      0      0      0      0    0.0  0.000      0   0.00   0.00   0.00   0.00   0.00   0.00   0.00   1.00   0.00    0.0   0.00      0      0      0.0   0.00   0.00 0.0500   0.000   0.000   0.000   0.000   0.000   0.000   0.000   0.000   0.000   0.000      0      0      0       0       0   4.195   53.292
   16 310    13    12   9.205     9  0.000      0      0      0      0      0      0      0      0    0.0  0.000      0   0.00   0.00   0.00   0.00   0.00   0.00   0.00   1.00   0.00    0.0   0.00      0      0      0.0   0.00   0.00 0.0500   0.000   0.000   0.000   0.000   0.000   0.000   0.000   0.000   0.000   0.000      0      0      0       0       0   7.000   60.292
   16 311    14    13   9.816     9  0.000      0      0      0      0      0      0      0      0    0.0  0.000      0   0.00   0.00   0.00   0.00   0.00   0.00   0.00   1.00   0.00    0.0   0.00      0      0      0.0   0.00   0.00 0.0500   0.000   0.000   0.000   0.000   0.000   0.000   0.000   0.000   0.000   0.000      0      0      0       0       0   4.000   64.292
   16 312    15    14  10.045     1  0.016      9      0      0     24     10     10      0      0    0.0  0.000      0   0.00   0.00   1.00   0.00   0.00   0.00   0.00   1.00   6.33  400.0   0.00      0      0    399.4   0.00   0.00 0.0540   0.047   0.003   0.000   0.000   0.000   0.000   0.000   0.000   0.000   0.000      0      0      0       0       0   2.098    0.890
   16 313    16    15  10.064     1  0.016      9      0      0     24     10     10      0      0    0.0  0.000      0   0.00   0.00   1.00   0.00   0.00   0.00   0.00   1.00   6.30  400.0   0.00      0      0    399.2   0.00   0.00 0.0580   0.047   0.003   0.000   0.000   0.000   0.000   0.000   0.000   0.000   0.000      0      0      0       0       0   2.098    1.277
   16 314    17    16  10.083     1  0.017      9      0      0     24     10     10      0      0    0.0  0.000      0   0.00   0.00   1.00   0.00   0.00   0.00   0.00   1.00   6.26  400.0   0.00      0      0    398.9   0.00   0.00 0.0618   0.046   0.003   0.000   0.000   0.000   0.000   0.000   0.000   0.000   0.000      0      0      0       0       0   2.000    1.664
   16 315    18    17  10.120     1  0.017     10      0      0     24     11     11      0      0    0.0  0.000      0   0.00   0.00   1.00   0.00   0.00   0.00   0.00   1.00   5.91  400.0   0.00      0      0    398.4   0.00   0.00 0.0694   0.046   0.003   0.000   0.000   0.000   0.000   0.000   0.000   0.000   0.000      0      0      0       0       0   4.000    2.408
   16 316    19    18  10.147     1  0.018     11      0      0     23     12     12      0      0    0.0  0.000      1   0.00   0.00   1.00   0.00   0.00   0.00   0.00   1.00   6.06  400.0   0.00      0      1    398.1   0.00   0.00 0.0751   0.045   0.003   0.000   0.000   0.000   0.000   0.000   0.000   0.000   0.000      0      0      0       0       0   3.000    2.945
   16 317    20    19  10.165     1  0.018     11      0      0     23     12     12      0      0    0.0  0.000      1   0.00   0.00   1.00   0.00   0.00   0.00   0.00   1.00   6.27  400.0   0.00      0      1    397.9   0.00   0.00 0.0790   0.045   0.003   0.000   0.000   0.000   0.000   0.000   0.000   0.000   0.000      0      0      0       0       0   2.098    3.306
   16 318    21    20  10.171     1  0.018     11      0      0     23     12     12      0      0    0.0  0.000      1   0.00   0.00   1.00   0.00   0.00   0.00   0.00   1.00   6.34  400.0   0.00      0      1    397.8   0.00   0.00 0.0804   0.044   0.003   0.000   0.000   0.000   0.000   0.000   0.000   0.000   0.000      0      0      0       0       0   0.695    3.420
   16 319    22    21  10.178     1  0.018     11      0      0     23     12     12      0      0    0.0  0.000      1   0.00   0.00   1.00   0.00   0.00   0.00   0.00   1.00   6.34  400.0   0.00      0      1    397.7   0.00   0.00 0.0819   0.044   0.003   0.000   0.000   0.000   0.000   0.000   0.000   0.000   0.000      0      0      0       0       0   0.828    3.551
   16 320    23    22  10.201     1  0.019     11      0      0     23     12     12      0      0    0.0  0.000      1   0.00   0.00   1.00   0.00   0.00   0.00   0.00   1.00   6.10  400.0   0.00      0      1    397.4   0.00   0.00 0.0878   0.043   0.002   0.000   0.000   0.000   0.000   0.000   0.000   0.000   0.000      0      0      0       0       0   3.098    4.019
   16 321    24    23  10.252     1  0.020     15      0      0     23     16     16      0      0    0.0  0.000      1   0.00   0.00   1.00   0.00   0.00   0.00   0.00   1.00   4.82  400.0   0.00      0      1    396.8   0.00   0.00 0.1011   0.043   0.002   0.000   0.000   0.000   0.000   0.000   0.000   0.000   0.000      0      0      0       0       0   7.000    5.030
   16 322    25    24  10.300     1  0.021     19      0      0     23     20     20      0      0    0.0  0.000      1   0.00   0.00   1.00   0.00   0.00   0.00   0.00   1.00   4.94  400.0   0.00      0      1    396.2   0.00   0.00 0.1144   0.043   0.002   0.000   0.000   0.000   0.000   0.000   0.000   0.000   0.000      0      0      0       0       0   7.000    5.995
   16 323    26    25  10.349     1  0.022     24      0      0     23     26     26      0      0    0.0  0.000      1   0.00   0.00   1.00   0.00   0.00   0.00   0.00   1.00   4.23  400.0   0.00      0      1    395.5   0.00   0.00 0.1286   0.042   0.002   0.000   0.000   0.000   0.000   0.000   0.000   0.000   0.000      0      0      0       0       0   7.500    6.980
   16 324    27    26  10.371     1  0.022     25      0      0     23     27     27      0      0    0.0  0.000      2   0.00   0.00   1.00   0.00   0.00   0.00   0.00   1.00   4.22  400.0   0.00      0      2    395.3   0.00   0.00 0.1353   0.042   0.002   0.000   0.000   0.000   0.000   0.000   0.000   0.000   0.000      0      0      0       0       0   3.500    7.417
   16 325    28    27  10.398     1  0.024     27      0      0     23     30     30      0      0    0.0  0.000      2   0.00   0.00   1.00   0.00   0.00   0.00   0.00   1.00   4.17  400.0   0.00      0      2    394.9   0.00   0.00 0.1438   0.041   0.002   0.000   0.000   0.000   0.000   0.000   0.000   0.000   0.000      0      0      0       0       0   4.500    7.952
   16 326    29    28  10.443     1  0.026     34      0      0     23     37     37      0      0    0.0  0.000      3   0.00   0.00   1.00   0.00   0.00   0.00   0.00   1.00   3.59  400.0   0.00      0      3    394.4   0.00   0.00 0.1590   0.041   0.002   0.000   0.000   0.000   0.000   0.000   0.000   0.000   0.000      0      0      0       0       0   8.000    8.854
   16 327    30    29  10.483     1  0.028     41      0      0     23     45     45      0      0    0.0  0.000      3   0.00   0.00   1.00   0.00   0.00   0.00   0.00   1.00   3.19  400.0   0.00      0      3    393.9   0.00   0.00 0.1722   0.041   0.002   0.000   0.000   0.000   0.000   0.000   0.000   0.000   0.000      0      0      0       0       0   7.500    9.655
   16 328    31    30  10.511     1  0.030     45      0      0     23     49     49      0      0    0.0  0.000      3   0.00   0.00   1.00   0.00   0.00   0.00   0.00   1.00   3.05  400.0   0.00      0      3    393.5   0.00   0.00 0.1819   0.040   0.002   0.000   0.000   0.000   0.000   0.000   0.000   0.000   0.000      0      0      0       0       0   5.500   10.210
   16 329    32    31  10.532     1  0.030     48      0      0     23     52     52      0      0    0.0  0.000      4   0.00   0.00   1.00   0.00   0.00   0.00   0.00   1.00   3.00  400.0   0.00      0      4    393.3   0.00   0.00 0.1898   0.040   0.002   0.000   0.000   0.000   0.000   0.000   0.000   0.000   0.000      0      0      0       0       0   4.500   10.639
   16 330    33    32  10.557     1  0.031     53      0      0     23     57     57      0      0    0.0  0.000      4   0.00   0.00   1.00   0.00   0.00   0.00   0.00   1.00   2.85  400.0   0.00      0      4    393.0   0.00   0.00 0.1995   0.039   0.002   0.000   0.000   0.000   0.000   0.000   0.000   0.000   0.000      0      0      0       0       0   5.500   11.134
   16 331    34    33  10.580     1  0.032     57      0      0     23     62     62      0      0    0.0  0.000      4   0.00   0.00   1.00   0.00   0.00   0.00   0.00   1.00   2.71  400.0   0.00      0      4    392.7   0.00   0.00 0.2080   0.039   0.002   0.000   0.000   0.000   0.000   0.000   0.000   0.000   0.000      0      0      0       0       0   5.500   11.599
   16 332    35    34  10.594     1  0.033     59      0      0     23     64     64      0      0    0.0  0.000      4   0.00   0.00   1.00   0.00   0.00   0.00   0.00   1.00   2.69  400.0   0.00      0      4    392.5   0.00   0.00 0.2133   0.039   0.002   0.000   0.000   0.000   0.000   0.000   0.000   0.000   0.000      0      0      0       0       0   3.500   11.877
   16 333    36    35  10.595     1  0.033     59      0      0     23     64     64      0      0    0.0  0.000      4   0.00   0.00   1.00   0.00   0.00   0.00   0.00   1.00   2.77  400.0   0.00      0      4    392.5   0.00   0.00 0.2139   0.038   0.002   0.000   0.000   0.000   0.000   0.000   0.000   0.000   0.000      0      0      0       0       0   0.353   11.903
   16 334    37    36  10.595     1  0.033     59      0      0     23     64     64      0      0    0.0  0.000      4   0.00   0.00   1.00   0.00   0.00   0.00   0.00   1.00   2.84  400.0   0.00      0      4    392.5   0.00   0.00 0.2139   0.038   0.002   0.000   0.000   0.000   0.000   0.000   0.000   0.000   0.000      0      0      0       0       0   0.000   11.903
   16 335    38    37  10.596     1  0.033     59      0      0     22     64     64      0      0    0.0  0.000      4   0.00   0.00   1.00   0.00   0.00   0.00   0.00   1.00   2.91  400.0   0.00      0      4    392.5   0.00   0.00 0.2144   0.038   0.002   0.000   0.000   0.000   0.000   0.000   0.000   0.000   0.000      0      0      0       0       0   0.355   11.926
   16 336    39    38  10.602     1  0.034     60      0      0     22     65     65      0      0    0.0  0.000      5   0.00   0.00   1.00   0.00   0.00   0.00   0.00   1.00   2.94  400.0   0.00      0      5    392.4   0.00   0.00 0.2175   0.037   0.002   0.000   0.000   0.000   0.000   0.000   0.000   0.000   0.000      0      0      0       0       0   2.000   12.048
   16 337    40    39  10.609     1  0.035     61      0      0     23     66     66      0      0    0.0  0.000      5   0.00   0.00   1.00   0.00   0.00   0.00   0.00   1.00   2.95  400.0   0.00      0      5    392.3   0.00   0.00 0.2214   0.037   0.002   0.000   0.000   0.000   0.000   0.000   0.000   0.000   0.000      0      0      0       0       0   2.500   12.188
   16 338    41    40  10.609     1  0.035     61      0      0     22     66     66      0      0    0.0  0.000      5   0.00   0.00   1.00   0.00   0.00   0.00   0.00   1.00   3.02  400.0   0.00      0      5    392.3   0.00   0.00 0.2214   0.037   0.002   0.000   0.000   0.000   0.000   0.000   0.000   0.000   0.000      0      0      0       0       0   0.000   12.188
   16 339    42    41  10.609     1  0.035     61      0      0     22     66     66      0      0    0.0  0.000      5   0.00   0.00   1.00   0.00   0.00   0.00   0.00   1.00   3.08  400.0   0.00      0      5    392.3   0.00   0.00 0.2214   0.036   0.002   0.000   0.000   0.000   0.000   0.000   0.000   0.000   0.000      0      0      0       0       0   0.000   12.188
   16 340    43    42  10.610     1  0.035     61      0      0     22     66     66      0      0    0.0  0.000      5   0.00   0.00   1.00   0.00   0.00   0.00   0.00   1.00   3.14  400.0   0.00      0      5    392.3   0.00   0.00 0.2215   0.036   0.002   0.000   0.000   0.000   0.000   0.000   0.000   0.000   0.000      0      0      0       0       0   0.094   12.193
   16 341    44    43  10.610     1  0.035     61      0      0     22     66     66      0      0    0.0  0.000      5   0.00   0.00   1.00   0.00   0.00   0.00   0.00   1.00   3.19  400.0   0.00      0      5    392.3   0.00   0.00 0.2215   0.035   0.002   0.000   0.000   0.000   0.000   0.000   0.000   0.000   0.000      0      0      0       0       0   0.000   12.193
   16 342    45    44  10.610     1  0.035     61      0      0     21     66     66      0      0    0.0  0.000      5   0.00   0.00   1.00   0.00   0.00   0.00   0.00   1.00   3.24  400.0   0.00      0      5    392.3   0.00   0.00 0.2222   0.035   0.002   0.000   0.000   0.000   0.000   0.000   0.000   0.000   0.000      0      0      0       0       0   0.443   12.209
   16 343    46    45  10.612     1  0.035     61      0      0     21     66     66      0      0    0.0  0.000      5   0.00   0.00   1.00   0.00   0.00   0.00   0.00   1.00   3.28  400.0   0.00      0      5    392.3   0.00   0.00 0.2238   0.035   0.002   0.000   0.000   0.000   0.000   0.000   0.000   0.000   0.000      0      0      0       0       0   1.066   12.246
   16 344    47    46  10.617     1  0.036     62      0      0     21     67     67      0      0    0.0  0.000      5   0.00   0.00   1.00   0.00   0.00   0.00   0.00   1.00   3.29  400.0   0.00      0      5    392.2   0.00   0.00 0.2284   0.034   0.002   0.000   0.000   0.000   0.000   0.000   0.000   0.000   0.000      0      0      0       0       0   2.981   12.342
   16 345    48    47  10.623     1  0.038     63      0      0     21     69     69      0      0    0.0  0.000      6   0.00   0.00   1.00   0.00   0.00   0.00   0.00   1.00   3.27  400.0   0.00      0      6    392.1   0.00   0.00 0.2349   0.034   0.002   0.000   0.000   0.000   0.000   0.000   0.000   0.000   0.000      0      0      0       0       0   4.195   12.465
   16 346    49    48  10.626     1  0.039     63      0      0     21     69     69      0      0    0.0  0.000      6   0.00   0.00   1.00   0.00   0.00   0.00   0.00   1.00   3.31  400.0   0.00      0      6    392.1   0.00   0.00 0.2384   0.034   0.002   0.000   0.000   0.000   0.000   0.000   0.000   0.000   0.000      0      0      0       0       0   2.308   12.527
   16 347    50    49  10.630     1  0.040     63      0      0     21     70     70      0      0    0.0  0.000      6   0.00   0.00   1.00   0.00   0.00   0.00   0.00   1.00   3.34  400.0   0.00      0      6    392.1   0.00   0.00 0.2424   0.033   0.002   0.000   0.000   0.000   0.000   0.000   0.000   0.000   0.000      0      0      0       0       0   2.598   12.591
   16 348    51    50  10.632     1  0.042     64      0      0     22     71     71      0      0    0.0  0.000      6   0.00   0.00   1.00   0.00   0.00   0.00   0.00   1.00   3.35  400.0   0.00      0      6    392.0   0.00   0.00 0.2460   0.033   0.002   0.000   0.000   0.000   0.000   0.000   0.000   0.000   0.000      0      0      0       0       0   2.308   12.643
   16 349    52    51  10.636     1  0.043     64      0      0     22     71     71      0      0    0.0  0.000      7   0.00   0.00   1.00   0.00   0.00   0.00   0.00   1.00   3.37  400.0   0.00      0      7    392.0   0.00   0.00 0.2522   0.033   0.002   0.000   0.000   0.000   0.000   0.000   0.000   0.000   0.000      0      0      0       0       0   4.000   12.727
   16 350    53    52  10.638     1  0.044     64      0      0     22     72     72      0      0    0.0  0.000      7   0.00   0.00   1.00   0.00   0.00   0.00   0.00   1.00   3.40  400.0   0.00      0      7    392.0   0.00   0.00 0.2552   0.032   0.002   0.000   0.000   0.000   0.000   0.000   0.000   0.000   0.000      0      0      0       0       0   2.000   12.766
   16 351    54    53  10.639     1  0.044     64      0      0     21     72     72      0      0    0.0  0.000      7   0.00   0.00   1.00   0.00   0.00   0.00   0.00   1.00   3.43  400.0   0.00      0      7    392.0   0.00   0.00 0.2562   0.032   0.002   0.000   0.000   0.000   0.000   0.000   0.000   0.000   0.000      0      0      0       0       0   0.598   12.776
   16 352    55    54  10.639     1  0.044     64      0      0     21     72     72      0      0    0.0  0.000      7   0.00   0.00   1.00   0.00   0.00   0.00   0.00   1.00   3.47  400.0   0.00      0      7    392.0   0.00   0.00 0.2565   0.032   0.002   0.000   0.000   0.000   0.000   0.000   0.000   0.000   0.000      0      0      0       0       0   0.195   12.780
   16 353    56    55  10.640     1  0.044     64      0      0     21     72     72      0      0    0.0  0.000      7   0.00   0.00   1.00   0.00   0.00   0.00   0.00   1.00   3.50  400.0   0.00      0      7    391.9   0.00   0.00 0.2581   0.031   0.002   0.000   0.000   0.000   0.000   0.000   0.000   0.000   0.000      0      0      0       0       0   1.098   12.797
   16 354    57    56  10.641     1  0.044     64      0      0     21     72     72      0      0    0.0  0.000      7   0.00   0.00   1.00   0.00   0.00   0.00   0.00   1.00   3.53  400.0   0.00      0      7    391.9   0.00   0.00 0.2598   0.031   0.002   0.000   0.000   0.000   0.000   0.000   0.000   0.000   0.000      0      0      0       0       0   1.098   12.814
   16 355    58    57  10.641     1  0.044     64      0      0     21     72     72      0      0    0.0  0.000      7   0.00   0.00   1.00   0.00   0.00   0.00   0.00   1.00   3.56  400.0   0.00      0      7    391.9   0.00   0.00 0.2601   0.031   0.002   0.000   0.000   0.000   0.000   0.000   0.000   0.000   0.000      0      0      0       0       0   0.195   12.817
   16 356    59    58  10.641     1  0.044     64      0      0     20     72     72      0      0    0.0  0.000      7   0.00   0.00   1.00   0.00   0.00   0.00   0.00   1.00   3.59  400.0   0.00      0      7    391.9   0.00   0.00 0.2614   0.031   0.002   0.000   0.000   0.000   0.000   0.000   0.000   0.000   0.000      0      0      0       0       0   0.793   12.829
   16 357    60    59  10.642     1  0.044     64      0      0     20     72     72      0      0    0.0  0.000      7   0.00   0.00   1.00   0.00   0.00   0.00   0.00   1.00   3.62  400.0   0.00      0      7    391.9   0.00   0.00 0.2620   0.030   0.002   0.000   0.000   0.000   0.000   0.000   0.000   0.000   0.000      0      0      0       0       0   0.443   12.836
   16 358    61    60  10.643     1  0.044     64      0      0     20     72     72      0      0    0.0  0.000      7   0.00   0.00   1.00   0.00   0.00   0.00   0.00   1.00   3.65  400.0   0.00      0      7    391.9   0.00   0.00 0.2639   0.030   0.002   0.000   0.000   0.000   0.000   0.000   0.000   0.000   0.000      0      0      0       0       0   1.195   12.854
   16 359    62    61  10.645     1  0.045     65      0      0     20     72     72      0      0    0.0  0.000      7   0.00   0.00   1.00   0.00   0.00   0.00   0.00   1.00   3.66  400.0   0.00      0      7    391.9   0.00   0.00 0.2685   0.030   0.002   0.000   0.000   0.000   0.000   0.000   0.000   0.000   0.000      0      0      0       0       0   3.000   12.902
   16 360    63    62  10.650     1  0.046     65      0      0     20     73     73      0      0    0.0  0.000      8   0.00   0.00   1.00   0.00   0.00   0.00   0.00   1.00   3.66  400.0   0.00      0      8    391.8   0.00   0.00 0.2777   0.029   0.002   0.000   0.000   0.000   0.000   0.000   0.000   0.000   0.000      0      0      0       0       0   6.000   13.002
   16 361    64    63  10.655     1  0.048     65      0      0     20     74     74      0      0    0.0  0.000      8   0.00   0.00   1.00   0.00   0.00   0.00   0.00   1.00   3.67  400.0   0.00      0      8    391.8   0.00   0.00 0.2870   0.029   0.002   0.000   0.000   0.000   0.000   0.000   0.000   0.000   0.000      0      0      0       0       0   6.000   13.108
   16 362    65    64  10.657     1  0.049     66      0      0     20     75     75      0      0    0.0  0.000      9   0.00   0.00   1.00   0.00   0.00   0.00   0.00   1.00   3.67  400.0   0.00      0      9    391.7   0.00   0.00 0.2901   0.029   0.002   0.000   0.000   0.000   0.000   0.000   0.000   0.000   0.000      0      0      0       0       0   2.000   13.146
   16 363    66    65  10.659     1  0.050     66      0      0     20     75     75      0      0    0.0  0.000      9   0.00   0.00   1.00   0.00   0.00   0.00   0.00   1.00   3.69  400.0   0.00      0      9    391.7   0.00   0.00 0.2924   0.029   0.002   0.000   0.000   0.000   0.000   0.000   0.000   0.000   0.000      0      0      0       0       0   1.500   13.176
   16 364    67    66  10.661     1  0.051     66      0      0     20     75     75      0      0    0.0  0.000      9   0.00   0.00   1.00   0.00   0.00   0.00   0.00   1.00   3.71  400.0   0.00      0      9    391.7   0.00   0.00 0.2952   0.028   0.002   0.000   0.000   0.000   0.000   0.000   0.000   0.000   0.000      0      0      0       0       0   1.812   13.216
   16 365    68    67  10.661     1  0.051     66      0      0     20     75     75      0      0    0.0  0.000      9   0.00   0.00   1.00   0.00   0.00   0.00   0.00   1.00   3.73  400.0   0.00      0      9    391.7   0.00   0.00 0.2958   0.028   0.002   0.000   0.000   0.000   0.000   0.000   0.000   0.000   0.000      0      0      0       0       0   0.414   13.226
   16 366    69    68  10.661     1  0.051     66      0      0     20     75     75      0      0    0.0  0.000      9   0.00   0.00   1.00   0.00   0.00   0.00   0.00   1.00   3.76  400.0   0.00      0      9    391.7   0.00   0.00 0.2958   0.028   0.002   0.000   0.000   0.000   0.000   0.000   0.000   0.000   0.000      0      0      0       0       0   0.000   13.226
   17 001    70    69  10.661     1  0.051     66      0      0     20     75     75      0      0    0.0  0.000      9   0.00   0.00   1.00   0.00   0.00   0.00   0.00   1.00   3.79  400.0   0.00      0      9    391.7   0.00   0.00 0.2958   0.027   0.002   0.000   0.000   0.000   0.000   0.000   0.000   0.000   0.000      0      0      0       0       0   0.016   13.227
   17 002    71    70  10.661     1  0.051     66      0      0     20     75     75      0      0    0.0  0.000      9   0.00   0.00   1.00   0.00   0.00   0.00   0.00   1.00   3.81  400.0   0.00      0      9    391.7   0.00   0.00 0.2958   0.027   0.002   0.000   0.000   0.000   0.000   0.000   0.000   0.000   0.000      0      0      0       0       0   0.000   13.227
   17 003    72    71  10.662     1  0.051     66      0      0     19     75     75      0      0    0.0  0.000      9   0.00   0.00   1.00   0.00   0.00   0.00   0.00   1.00   3.84  400.0   0.00      0      9    391.7   0.00   0.00 0.2961   0.027   0.002   0.000   0.000   0.000   0.000   0.000   0.000   0.000   0.000      0      0      0       0       0   0.195   13.233
   17 004    73    72  10.663     1  0.051     66      0      0     19     75     75      0      0    0.0  0.000      9   0.00   0.00   1.00   0.00   0.00   0.00   0.00   1.00   3.86  400.0   0.00      0      9    391.7   0.00   0.00 0.2970   0.027   0.002   0.000   0.000   0.000   0.000   0.000   0.000   0.000   0.000      0      0      0       0       0   0.598   13.254
   17 005    74    73  10.663     1  0.051     66      0      0     19     75     75      0      0    0.0  0.000      9   0.00   0.00   1.00   0.00   0.00   0.00   0.00   1.00   3.89  400.0   0.00      0      9    391.7   0.00   0.00 0.2970   0.026   0.002   0.000   0.000   0.000   0.000   0.000   0.000   0.000   0.000      0      0      0       0       0   0.000   13.254
   17 006    75    74  10.663     1  0.051     66      0      0     19     75     75      0      0    0.0  0.000      9   0.00   0.00   1.00   0.00   0.00   0.00   0.00   1.00   3.91  400.0   0.00      0      9    391.7   0.00   0.00 0.2970   0.026   0.002   0.000   0.000   0.000   0.000   0.000   0.000   0.000   0.000      0      0      0       0       0   0.000   13.254
   17 007    76    75  10.663     1  0.051     66      0      0     19     75     75      0      0    0.0  0.000      9   0.00   0.00   1.00   0.00   0.00   0.00   0.00   1.00   3.94  400.0   0.00      0      9    391.7   0.00   0.00 0.2970   0.026   0.002   0.000   0.000   0.000   0.000   0.000   0.000   0.000   0.000      0      0      0       0       0   0.000   13.254
   17 008    77    76  10.663     1  0.051     66      0      0     19     75     75      0      0    0.0  0.000      9   0.00   0.00   1.00   0.00   0.00   0.00   0.00   1.00   3.96  400.0   0.00      0      9    391.7   0.00   0.00 0.2974   0.026   0.002   0.000   0.000   0.000   0.000   0.000   0.000   0.000   0.000      0      0      0       0       0   0.222   13.264
   17 009    78    77  10.664     1  0.051     66      0      0     18     75     75      0      0    0.0  0.000      9   0.00   0.00   1.00   0.00   0.00   0.00   0.00   1.00   3.98  400.0   0.00      0      9    391.6   0.00   0.00 0.2978   0.025   0.002   0.000   0.000   0.000   0.000   0.000   0.000   0.000   0.000      0      0      0       0       0   0.296   13.280
   17 010    79    78  10.664     1  0.051     66      0      0     18     75     75      0      0    0.0  0.000      9   0.00   0.00   1.00   0.00   0.00   0.00   0.00   1.00   4.00  400.0   0.00      0      9    391.6   0.00   0.00 0.2979   0.025   0.002   0.000   0.000   0.000   0.000   0.000   0.000   0.000   0.000      0      0      0       0       0   0.019   13.281
   17 011    80    79  10.665     1  0.051     66      0      0     18     75     75      0      0    0.0  0.000      9   0.00   0.00   1.00   0.00   0.00   0.00   0.00   1.00   4.02  400.0   0.00      0      9    391.6   0.00   0.00 0.2983   0.025   0.002   0.000   0.000   0.000   0.000   0.000   0.000   0.000   0.000      0      0      0       0       0   0.311   13.299
   17 012    81    80  10.671     1  0.052     66      0      0     18     76     76      0      0    0.0  0.000      9   0.00   0.00   1.00   0.00   0.00   0.00   0.00   1.00   4.03  400.0   0.00      0      9    391.6   0.00   0.00 0.3014   0.025   0.002   0.000   0.000   0.000   0.000   0.000   0.000   0.000   0.000      0      0      0       0       0   2.000   13.429
   17 013    82    81  10.679     1  0.053     67      0      0     18     76     76      0      0    0.0  0.000      9   0.00   0.00   1.00   0.00   0.00   0.00   0.00   1.00   4.03  400.0   0.00      0      9    391.5   0.00   0.00 0.3045   0.024   0.002   0.000   0.000   0.000   0.000   0.000   0.000   0.000   0.000      0      0      0       0       0   2.195   13.581
   17 014    83    82  10.680     1  0.053     67      0      0     18     76     76      0      0    0.0  0.000      9   0.00   0.00   1.00   0.00   0.00   0.00   0.00   1.00   4.05  400.0   0.00      0      9    391.5   0.00   0.00 0.3048   0.024   0.002   0.000   0.000   0.000   0.000   0.000   0.000   0.000   0.000      0      0      0       0       0   0.195   13.596
   17 015    84    83  10.681     1  0.053     67      0      0     18     76     76      0      0    0.0  0.000      9   0.00   0.00   1.00   0.00   0.00   0.00   0.00   1.00   4.07  400.0   0.00      0      9    391.4   0.00   0.00 0.3052   0.024   0.002   0.000   0.000   0.000   0.000   0.000   0.000   0.000   0.000      0      0      0       0       0   0.296   13.619
   17 016    85    84  10.681     1  0.053     67      0      0     17     76     76      0      0    0.0  0.000      9   0.00   0.00   1.00   0.00   0.00   0.00   0.00   1.00   4.09  400.0   0.00      0      9    391.4   0.00   0.00 0.3052   0.024   0.002   0.000   0.000   0.000   0.000   0.000   0.000   0.000   0.000      0      0      0       0       0   0.024   13.621
   17 017    86    85  10.681     1  0.053     67      0      0     17     76     76      0      0    0.0  0.000      9   0.00   0.00   1.00   0.00   0.00   0.00   0.00   1.00   4.11  400.0   0.00      0      9    391.4   0.00   0.00 0.3052   0.023   0.002   0.000   0.000   0.000   0.000   0.000   0.000   0.000   0.000      0      0      0       0       0   0.000   13.621
   17 018    87    86  10.681     1  0.053     67      0      0     17     76     76      0      0    0.0  0.000      9   0.00   0.00   1.00   0.00   0.00   0.00   0.00   1.00   4.13  400.0   0.00      0      9    391.4   0.00   0.00 0.3052   0.023   0.002   0.000   0.000   0.000   0.000   0.000   0.000   0.000   0.000      0      0      0       0       0   0.000   13.621
   17 019    88    87  10.681     1  0.053     67      0      0     17     76     76      0      0    0.0  0.000      9   0.00   0.00   1.00   0.00   0.00   0.00   0.00   1.00   4.15  400.0   0.00      0      9    391.4   0.00   0.00 0.3052   0.023   0.002   0.000   0.000   0.000   0.000   0.000   0.000   0.000   0.000      0      0      0       0       0   0.000   13.621
   17 020    89    88  10.681     1  0.053     67      0      0     17     76     76      0      0    0.0  0.000      9   0.00   0.00   1.00   0.00   0.00   0.00   0.00   1.00   4.17  400.0   0.00      0      9    391.4   0.00   0.00 0.3052   0.023   0.001   0.000   0.000   0.000   0.000   0.000   0.000   0.000   0.000      0      0      0       0       0   0.010   13.622
   17 021    90    89  10.681     1  0.053     67      0      0     17     76     76      0      0    0.0  0.000      9   0.00   0.00   1.00   0.00   0.00   0.00   0.00   1.00   4.19  400.0   0.00      0      9    391.4   0.00   0.00 0.3052   0.022   0.001   0.000   0.000   0.000   0.000   0.000   0.000   0.000   0.000      0      0      0       0       0   0.000   13.622
   17 022    91    90  10.681     1  0.053     67      0      0     16     76     76      0      0    0.0  0.000      9   0.00   0.00   1.00   0.00   0.00   0.00   0.00   1.00   4.21  400.0   0.00      0      9    391.4   0.00   0.00 0.3052   0.022   0.001   0.000   0.000   0.000   0.000   0.000   0.000   0.000   0.000      0      0      0       0       0   0.000   13.622
   17 023    92    91  10.681     1  0.053     67      0      0     16     76     76      0      0    0.0  0.000      9   0.00   0.00   1.00   0.00   0.00   0.00   0.00   1.00   4.23  400.0   0.00      0      9    391.4   0.00   0.00 0.3052   0.022   0.001   0.000   0.000   0.000   0.000   0.000   0.000   0.000   0.000      0      0      0       0       0   0.000   13.622
   17 024    93    92  10.681     1  0.053     67      0      0     16     76     76      0      0    0.0  0.000      9   0.00   0.00   1.00   0.00   0.00   0.00   0.00   1.00   4.24  400.0   0.00      0      9    391.4   0.00   0.00 0.3052   0.022   0.001   0.000   0.000   0.000   0.000   0.000   0.000   0.000   0.000      0      0      0       0       0   0.000   13.622
   17 025    94    93  10.681     1  0.053     67      0      0     16     76     76      0      0    0.0  0.000      9   0.00   0.00   1.00   0.00   0.00   0.00   0.00   1.00   4.26  400.0   0.00      0      9    391.4   0.00   0.00 0.3052   0.022   0.001   0.000   0.000   0.000   0.000   0.000   0.000   0.000   0.000      0      0      0       0       0   0.000   13.622
   17 026    95    94  10.682     1  0.053     67      0      0     16     76     76      0      0    0.0  0.000      9   0.00   0.00   1.00   0.00   0.00   0.00   0.00   1.00   4.28  400.0   0.00      0      9    391.4   0.00   0.00 0.3054   0.021   0.001   0.000   0.000   0.000   0.000   0.000   0.000   0.000   0.000      0      0      0       0       0   0.111   13.638
   17 027    96    95  10.682     1  0.053     67      0      0     16     76     76      0      0    0.0  0.000      9   0.00   0.00   1.00   0.00   0.00   0.00   0.00   1.00   4.29  400.0   0.00      0      9    391.4   0.00   0.00 0.3054   0.021   0.001   0.000   0.000   0.000   0.000   0.000   0.000   0.000   0.000      0      0      0       0       0   0.000   13.638
   17 028    97    96  10.683     1  0.053     67      0      0     15     76     76      0      0    0.0  0.000      9   0.00   0.00   1.00   0.00   0.00   0.00   0.00   1.00   4.31  400.0   0.00      0      9    391.4   0.00   0.00 0.3055   0.021   0.001   0.000   0.000   0.000   0.000   0.000   0.000   0.000   0.000      0      0      0       0       0   0.089   13.652
   17 029    98    97  10.683     1  0.053     67      0      0     15     76     76      0      0    0.0  0.000      9   0.00   0.00   1.00   0.00   0.00   0.00   0.00   1.00   4.33  400.0   0.00      0      9    391.4   0.00   0.00 0.3056   0.021   0.001   0.000   0.000   0.000   0.000   0.000   0.000   0.000   0.000      0      0      0       0       0   0.058   13.662
   17 030    99    98  10.684     1  0.053     67      0      0     15     76     76      0      0    0.0  0.000      9   0.00   0.00   1.00   0.00   0.00   0.00   0.00   1.00   4.35  400.0   0.00      0      9    391.4   0.00   0.00 0.3057   0.020   0.001   0.000   0.000   0.000   0.000   0.000   0.000   0.000   0.000      0      0      0       0       0   0.071   13.674
   17 031   100    99  10.702     1  0.056     67      0      0     16     78     78      0      0    0.0  0.000     10   0.00   0.00   1.00   0.00   0.00   0.00   0.00   1.00   4.32  400.0   0.00      0     10    391.2   0.00   0.00 0.3085   0.020   0.001   0.000   0.000   0.000   0.000   0.000   0.000   0.000   0.000      0      0      0       0       0   2.000   14.031
   17 032   101   100  10.711     1  0.056     67      0      0     16     78     78      0      0    0.0  0.000     10   0.00   0.00   1.00   0.00   0.00   0.00   0.00   1.00   4.33  400.0   0.00      0     10    391.1   0.00   0.00 0.3099   0.020   0.001   0.000   0.000   0.000   0.000   0.000   0.000   0.000   0.000      0      0      0       0       0   1.000   14.217
   17 033   102   101  10.730     1  0.059     68      0      0     16     80     80      0      0    0.0  0.000     11   0.00   0.00   1.00   0.00   0.00   0.00   0.00   1.00   4.30  400.0   0.00      0     11    390.8   0.00   0.00 0.3126   0.020   0.001   0.000   0.000   0.000   0.000   0.000   0.000   0.000   0.000      0      0      0       0       0   2.000   14.603
   17 034   103   102  10.752     1  0.061     69      0      0     17     80     80      0      0    0.0  0.000     11   0.00   0.00   1.00   0.00   0.00   0.00   0.00   1.00   4.30  400.0   0.00      0     11    390.6   0.00   0.00 0.3157   0.020   0.001   0.000   0.000   0.000   0.000   0.000   0.000   0.000   0.000      0      0      0       0       0   2.195   15.043
   17 035   104   103  10.790     1  0.065     70      0      0     17     83     83      0      0    0.0  0.000     12   0.00   0.00   1.00   0.00   0.00   0.00   0.00   1.00   6.16  400.0   0.00      0     12    390.1   0.00   0.00 0.3207   0.020   0.001   0.000   0.000   0.000   0.000   0.000   0.000   0.000   0.000      0      0      0       0       0   3.598   15.792
   17 036   105   104  10.839     1  0.071     71      0      0     18     86     86      0      0    0.0  0.000     14   0.00   0.00   1.00   0.00   0.00   0.00   0.00   1.00   6.12  400.0   0.00      0     14    389.5   0.00   0.00 0.3271   0.020   0.001   0.000   0.000   0.000   0.000   0.000   0.000   0.000   0.000      0      0      0       0       0   4.597   16.782
   17 037   106   105  10.856     1  0.073     72      0      0     19     87     87      0      0    0.0  0.000     14   0.00   0.00   1.00   0.00   0.00   0.00   0.00   1.00   6.21  400.0   0.00      0     14    389.3   0.00   0.00 0.3292   0.020   0.001   0.000   0.000   0.000   0.000   0.000   0.000   0.000   0.000      0      0      0       0       0   1.500   17.117
   17 038   107   106  10.885     1  0.077     73      0      0     19     89     89      0      0    0.0  0.000     16   0.00   0.00   1.00   0.00   0.00   0.00   0.00   1.00   6.16  400.0   0.00      0     16    389.0   0.00   0.00 0.3327   0.019   0.001   0.000   0.000   0.000   0.000   0.000   0.000   0.000   0.000      0      0      0       0       0   2.500   17.694
   17 039   108   107  10.899     1  0.077     73      0      0     19     89     89      0      0    0.0  0.000     16   0.00   0.00   1.00   0.00   0.00   0.00   0.00   1.00   6.25  400.0   0.00      0     16    388.8   0.00   0.00 0.3343   0.019   0.001   0.000   0.000   0.000   0.000   0.000   0.000   0.000   0.000      0      0      0       0       0   1.195   17.979
   17 040   109   108  10.901     1  0.077     73      0      0     19     89     89      0      0    0.0  0.000     16   0.00   0.00   1.00   0.00   0.00   0.00   0.00   1.00   6.25  400.0   0.00      0     16    388.8   0.00   0.00 0.3346   0.019   0.001   0.000   0.000   0.000   0.000   0.000   0.000   0.000   0.000      0      0      0       0       0   0.195   18.027
   17 041   110   109  10.907     1  0.077     73      0      0     19     89     89      0      0    0.0  0.000     16   0.00   0.00   1.00   0.00   0.00   0.00   0.00   1.00   6.25  400.0   0.00      0     16    388.7   0.00   0.00 0.3352   0.019   0.001   0.000   0.000   0.000   0.000   0.000   0.000   0.000   0.000      0      0      0       0       0   0.443   18.140
   17 042   111   110  10.924     1  0.077     73      0      0     19     89     89      0      0    0.0  0.000     16   0.00   0.00   1.00   0.00   0.00   0.00   0.00   1.00   6.25  400.0   0.00      0     16    388.5   0.00   0.00 0.3371   0.019   0.001   0.000   0.000   0.000   0.000   0.000   0.000   0.000   0.000      0      0      0       0       0   1.328   18.488
   17 043   112   111  10.932     1  0.077     73      0      0     18     89     89      0      0    0.0  0.000     16   0.00   0.00   1.00   0.00   0.00   0.00   0.00   1.00   6.25  400.0   0.00      0     16    388.4   0.00   0.00 0.3379   0.019   0.001   0.000   0.000   0.000   0.000   0.000   0.000   0.000   0.000      0      0      0       0       0   0.598   18.649
   17 044   113   112  10.969     1  0.080     73      0      0     19     90     90      0      0    0.0  0.000     16   0.00   0.00   1.00   0.00   0.00   0.00   0.00   1.00   6.18  400.0   0.00      0     16    388.0   0.00   0.00 0.3415   0.018   0.001   0.000   0.000   0.000   0.000   0.000   0.000   0.000   0.000      0      0      0       0       0   2.598   19.372
   17 045   114   113  11.011     1  0.080     74      0      0     19     90     90      0      0    0.0  0.000     16   0.00   0.00   1.00   0.00   0.00   0.00   0.00   1.00   6.22  400.0   0.00      0     16    387.5   0.00   0.00 0.3457   0.018   0.001   0.000   0.000   0.000   0.000   0.000   0.000   0.000   0.000      0      0      0       0       0   2.981   20.224
   17 046   115   114  11.065     1  0.081     74      0      0     19     91     91      0      0    0.0  0.000     17   0.00   0.00   1.00   0.00   0.00   0.00   0.00   1.00   6.22  400.0   0.00      0     17    386.9   0.00   0.00 0.3508   0.018   0.001   0.000   0.000   0.000   0.000   0.000   0.000   0.000   0.000      0      0      0       0       0   3.673   21.305
   17 047   116   115  11.160     1  0.093     77      0      0     21     97     97      0      0    0.0  0.000     20   0.00   0.00   1.00   0.00   0.00   0.00   0.00   1.00   5.97  400.0   0.00      0     20    385.8   0.00   0.00 0.3596   0.018   0.001   0.000   0.000   0.000   0.000   0.000   0.000   0.000   0.000      0      0      0       0       0   6.299   23.208
   17 048   117   116  11.191     1  0.096     78      0      0     22     99     99      0      0    0.0  0.000     21   0.00   0.00   1.00   0.00   0.00   0.00   0.00   1.00   6.14  400.0   0.00      0     21    385.4   0.00   0.00 0.3624   0.018   0.001   0.000   0.000   0.000   0.000   0.000   0.000   0.000   0.000      0      0      0       0       0   2.000   23.829
   17 049   118   117  11.242     1  0.102     79      0      0     23    101    101      0      0    0.0  0.000     22   0.00   0.00   1.00   0.00   0.00   0.00   0.00   1.00   6.09  400.0   0.00      0     22    384.8   0.00   0.00 0.3668   0.018   0.001   0.000   0.000   0.000   0.000   0.000   0.000   0.000   0.000      0      0      0       0       0   3.195   24.847
   17 050   119   118  11.280     1  0.104     80      0      0     24    103    103      0      0    0.0  0.000     23   0.00   0.00   1.00   0.00   0.00   0.00   0.00   1.00   6.16  400.0   0.00      0     23    384.4   0.00   0.00 0.3700   0.018   0.001   0.000   0.000   0.000   0.000   0.000   0.000   0.000   0.000      0      0      0       0       0   2.308   25.601
   17 051   120   119  11.364     1  0.114     82      0      0     26    108    108      0      0    0.0  0.000     25   0.00   0.00   1.00   0.00   0.00   0.00   0.00   1.00   5.99  400.0   0.00      0     25    383.4   0.00   0.00 0.3770   0.018   0.001   0.000   0.000   0.000   0.000   0.000   0.000   0.000   0.000      0      0      0       0       0   5.000   27.275
   17 052   121   120  11.492     1  0.119     84      0      0     27    111    111      0      0    0.0  0.000     27   0.00   0.00   1.00   0.00   0.00   0.00   0.00   1.00   6.06  400.0   0.00      0     27    382.0   0.00   0.00 0.3874   0.018   0.001   0.000   0.000   0.000   0.000   0.000   0.000   0.000   0.000      0      0      0       0       0   7.500   29.848
   17 053   122   121  11.650     1  0.128     86      0      0     28    115    115      0      0    0.0  0.000     29   0.00   0.00   1.00   0.00   0.00   0.00   0.00   1.00   5.99  400.0   0.00      0     29    380.2   0.00   0.00 0.4000   0.018   0.001   0.000   0.000   0.000   0.000   0.000   0.000   0.000   0.000      0      0      0       0       0   9.000   33.010
   17 054   123   122  11.848     1  0.147     91      0      0     32    125    125      0      0    0.0  0.000     34   0.00   0.00   1.00   0.00   0.00   0.00   0.00   1.00   5.80  400.0   0.00      0     34    378.1   0.00   0.00 0.4153   0.018   0.001   0.000   0.000   0.000   0.000   0.000   0.000   0.000   0.000      0      0      0       0       0  11.000   36.965
   17 055   124   123  11.960     1  0.160     95      0      0     35    132    132      0      0    0.0  0.000     37   0.00   0.00   1.00   0.00   0.00   0.00   0.00   1.00   5.87  400.0   0.00      0     37    376.9   0.00   0.00 0.4229   0.018   0.001   0.000   0.000   0.000   0.000   0.000   0.000   0.000   0.000      0      0      0       0       0   6.097   39.207
   17 056   125   124  12.032     1  0.171     97      0      0     40    138    138      0      0    0.0  0.000     40   0.00   0.00   1.00   0.09   0.00   0.00   0.00   1.00   5.93  400.0   0.00      0     40    376.1   0.00   0.00 0.4276   0.018   0.002   0.000   0.000   0.000   0.000   0.000   0.000   0.000   0.000      0      0      0       0       0   3.803   40.637
   17 057   126   125  12.139     1  0.189    102      0      0     44    148    148      0      0    0.0  0.000     45   0.00   0.00   1.00   0.06   0.00   0.00   0.00   1.00   5.80  400.0   0.00      0     45    375.0   0.00   0.00 0.4346   0.019   0.002   0.000   0.000   0.000   0.000   0.000   0.000   0.000   0.000      0      0      0       0       0   5.597   42.787
   17 058   127   126  12.263     1  0.217    110      0      0     50    163    163      0      0    0.0  0.000     53   0.00   0.00   1.00   0.11   0.00   0.00   0.00   1.00   5.65  400.0   0.00      0     53    373.7   0.00   0.00 0.4425   0.019   0.002   0.000   0.000   0.000   0.000   0.000   0.000   0.000   0.000      0      0      0       0       0   6.299   45.259
   17 059   128   127  12.323     1  0.225    112      0      0     51    167    167      0      0    0.0  0.000     55   0.00   0.00   1.00   0.16   0.00   0.00   0.00   1.00   5.96  400.0   0.00      0     55    373.1   0.00   0.00 0.4462   0.019   0.002   0.000   0.000   0.000   0.000   0.000   0.000   0.000   0.000      0      0      0       0       0   3.000   46.461
   17 060   129   128  12.415     1  0.243    117      0      0     55    177    177      0      0    0.0  0.000     60   0.00   0.00   1.00   0.04   0.00   0.00   0.00   1.00   5.79  400.0   0.00      0     60    372.1   0.00   0.00 0.4518   0.019   0.002   0.001   0.000   0.000   0.000   0.000   0.000   0.000   0.000      0      0      0       0       0   4.500   48.301
   17 061   130   129  12.532     1  0.271    124      0      0     66    192    192      0      0    0.0  0.000     67   0.00   0.00   1.00   0.09   0.00   0.00   0.00   1.00   5.68  400.0   0.00      0     67    370.9   0.00   0.00 0.4588   0.019   0.002   0.001   0.001   0.001   0.000   0.000   0.000   0.000   0.000      0      0      0       0       0   5.597   50.636
   17 062   131   130  12.632     1  0.289    129      0      0     75    202    202      0      0    0.0  0.000     72   0.00   0.00   1.00   0.13   0.00   0.00   0.00   1.00   5.79  400.0   0.00      0     72    369.9   0.00   0.00 0.4647   0.019   0.003   0.001   0.001   0.001   0.000   0.000   0.000   0.000   0.000      0      0      0       0       0   4.695   52.633
   17 063   132   131  12.827     1  0.330    140      0      0     84    224    224      0      0    0.0  0.000     83   0.00   0.00   1.00   0.08   0.00   0.00   0.00   1.00   5.53  400.0   0.00      0     83    368.0   0.00   0.00 0.4759   0.020   0.003   0.001   0.001   0.001   0.000   0.000   0.000   0.000   0.000      0      0      0       0       0   9.000   56.534
   17 064   133   132  12.948     1  0.363    149      0      0     92    242    242      0      0    0.0  0.000     92   0.00   0.00   1.00   0.16   0.00   0.00   0.00   1.00   5.62  400.0   0.00      0     92    366.8   0.00   0.00 0.4827   0.020   0.003   0.001   0.001   0.001   0.000   0.000   0.000   0.000   0.000      0      0      0       0       0   5.500   58.963
   17 065   134   133  13.072     1  0.395    158      0      0     98    259    259      0      0    0.0  0.000    101   0.00   0.00   1.00   0.12   0.00   0.00   0.00   1.00   5.65  400.0   0.00      0    101    365.6   0.00   0.00 0.4896   0.021   0.003   0.001   0.001   0.001   0.000   0.000   0.000   0.000   0.000      0      0      0       0       0   5.500   61.437
   17 066   135   134  13.141     1  0.405    161      0      0    103    265    265      0      0    0.0  0.000    104   0.00   0.00   1.00   0.11   0.00   0.00   0.00   1.00   5.85  400.0   0.00      0    104    365.0   0.00   0.00 0.4933   0.021   0.004   0.002   0.001   0.001   0.000   0.000   0.000   0.000   0.000      0      0      0       0       0   3.000   62.810
   17 067   136   135  13.234     1  0.424    166      0      0    113    275    275      0      0    0.0  0.000    109   0.00   0.00   1.00   0.03   0.00   0.00   0.00   1.00   5.76  400.0   0.00      0    109    364.1   0.00   0.00 0.4983   0.021   0.004   0.002   0.001   0.001   0.001   0.000   0.000   0.000   0.000      0      0      0       0       0   4.000   64.674
   17 068   137   136  13.423     1  0.443    171      0      0    116    286    286      0      0    0.0  0.000    114   0.00   0.00   1.00   0.06   0.00   0.00   0.00   1.00   5.75  400.0   0.00      0    114    362.3   0.00   0.00 0.5083   0.021   0.004   0.002   0.001   0.001   0.001   0.000   0.000   0.000   0.000      0      0      0       0       0   8.000   68.467
   17 069   138   137  13.534     1  0.463    177      0      0    126    297    297      0      0    0.0  0.000    119   0.00   0.00   1.00   0.06   0.00   0.00   0.00   1.00   5.73  400.0   0.00      0    119    361.3   0.00   0.00 0.5134   0.021   0.004   0.002   0.001   0.001   0.001   0.000   0.000   0.000   0.000      0      0      0       0       0   4.597   70.684
   17 070   139   138  13.640     1  0.479    181      0      0    134    305    305      0      0    0.0  0.000    124   0.00   0.00   1.00   0.06   0.00   0.00   0.00   1.00   5.75  400.0   0.00      0    124    360.3   0.00   0.00 0.5181   0.022   0.005   0.002   0.001   0.001   0.001   0.000   0.000   0.000   0.000      0      0      0       0       0   4.302   72.792
   17 071   140   139  13.752     1  0.503    188      0      0    146    319    319      0      0    0.0  0.000    131   0.00   0.00   1.00   0.05   0.00   0.00   0.00   1.00   5.67  400.0   0.00      0    131    359.3   0.00   0.00 0.5231   0.022   0.005   0.003   0.002   0.001   0.001   0.000   0.000   0.000   0.000      0      0      0       0       0   4.500   75.034
   17 072   141   140  13.893     1  0.534    197      0      0    162    336    336      0      0    0.0  0.000    139   0.00   0.00   1.00   0.07   0.00   0.00   0.00   1.00   5.61  400.0   0.00      0    139    358.1   0.00   0.00 0.5292   0.022   0.005   0.003   0.002   0.001   0.001   0.000   0.000   0.000   0.000      0      0      0       0       0   5.597   77.866
   17 073   142   141  14.050     1  0.572    207      0      0    181    357    357      0      0    0.0  0.000    150   0.00   0.00   1.00   0.08   0.00   0.00   0.00   1.00   5.95  400.0   0.00      0    150    356.7   0.00   0.00 0.5359   0.023   0.006   0.003   0.002   0.002   0.001   0.000   0.000   0.000   0.000      0      0      0       0       0   6.097   81.001
   17 074   143   142  14.207     1  0.615    219      0      0    203    382    382      0      0    0.0  0.000    162   0.00   0.00   1.00   0.00   0.00   0.00   0.00   1.00   5.93  400.0   0.00      0    162    355.4   0.00   0.00 0.5425   0.023   0.006   0.004   0.002   0.002   0.001   0.000   0.000   0.000   0.000      0      0      0       0       0   6.000   84.132
   17 075   144   143  14.405     1  0.680    238      0      0    237    418    418      0      0    0.0  0.000    180   0.00   0.00   1.00   0.00   0.00   0.00   0.00   1.00   5.78  400.0   0.00      0    180    353.7   0.00   0.00 0.5508   0.024   0.007   0.004   0.003   0.002   0.002   0.000   0.000   0.000   0.000      0      0      0       0       0   7.500   88.105
   17 076   145   144  14.661     1  0.778    265      0      0    270    474    474      0      0    0.0  0.000    208   0.00   0.00   1.00   0.00   0.00   0.00   0.00   1.00   5.49  400.0   0.00      0    208    351.6   0.00   0.00 0.5612   0.025   0.008   0.005   0.003   0.002   0.002   0.001   0.000   0.000   0.000      0      0      0       0       0   9.500   93.211
   17 077   146   145  14.851     1  0.815    276      0      0    276    495    495      0      0    0.0  0.000    219   0.00   0.00   1.00   0.09   0.00   0.00   0.00   1.00   5.73  400.0   0.00      0    219    350.0   0.00   0.00 0.5689   0.026   0.008   0.006   0.004   0.003   0.002   0.001   0.000   0.000   0.000      0      0      0       0       0   7.000   97.028
   17 078   147   146  15.142     1  0.885    296      0      0    291    535    535      0      0    0.0  0.000    239   0.00   0.00   1.00   0.00   0.00   0.00   0.00   1.00   5.65  400.0   0.00      0    239    347.7   0.00   0.00 0.5805   0.026   0.008   0.006   0.004   0.003   0.002   0.001   0.000   0.000   0.000      0      0      0       0       0  10.500  102.835
   17 079   148   147  15.408     1  0.985    325      0      0    313    593    593      0      0    0.0  0.000    268   0.00   0.00   1.00   0.01   0.00   0.00   0.00   1.00   5.37  400.0   0.00      0    268    345.7   0.00   0.00 0.5909   0.026   0.009   0.007   0.004   0.003   0.003   0.001   0.000   0.000   0.000      0      0      0       0       0   9.500  108.161
   17 080   149   148  15.678     1  1.083    354      0      0    336    650    650      0      0    0.0  0.000    296   0.00   0.00   1.00   0.09   0.00   0.00   0.00   1.00   5.13  400.0   0.00      0    296    343.7   0.00   0.00 0.6014   0.026   0.009   0.007   0.005   0.004   0.003   0.002   0.000   0.000   0.000      0      0      0       0       0   9.500  113.560
   17 081   150   149  15.836     1  1.123    365      0      0    344    674    674      0      0    0.0  0.000    308   0.00   0.00   1.00   0.16   0.00   0.00   0.00   1.00   5.15  400.0   0.00      0    308    342.5   0.00   0.00 0.6071   0.026   0.009   0.008   0.005   0.004   0.003   0.002   0.000   0.000   0.000      0      0      0       0       0   5.500  116.728
   17 082   151   150  16.070     1  1.202    389      0      0    387    720    720      0      0    0.0  0.000    331   0.00   0.00   1.00   0.15   0.00   0.00   0.00   1.00   4.98  400.0   0.00      0    331    340.8   0.00   0.00 0.6153   0.026   0.009   0.008   0.005   0.004   0.003   0.002   0.000   0.000   0.000      0      0      0       0       0   8.000  121.395
   17 083   152   151  16.247     1  1.251    403      0      0    406    749    749      0      0    0.0  0.000    346   0.00   0.00   1.00   0.20   0.00   0.00   0.00   1.00   4.94  400.0   0.00      0    346    339.6   0.00   0.00 0.6215   0.027   0.010   0.008   0.006   0.005   0.004   0.003   0.000   0.000   0.000      0      0      0       0       0   6.000  124.941
   17 084   153   152  16.471     1  1.321    424      0      0    444    791    791      0      0    0.0  0.000    367   0.00   0.00   1.00   0.20   0.00   0.00   0.00   1.00   4.82  400.0   0.00      0    367    338.1   0.00   0.00 0.6293   0.027   0.010   0.009   0.006   0.005   0.004   0.004   0.001   0.000   0.000      0      0      0       0       0   7.500  129.428
   17 085   154   153  16.638     1  1.363    436      0      0    465    816    816      0      0    0.0  0.000    379   0.00   0.00   1.00   0.24   0.00   0.00   0.00   1.00   4.80  400.0   0.00      0    379    336.9   0.00   0.00 0.6350   0.028   0.011   0.009   0.007   0.005   0.005   0.005   0.001   0.000   0.000      0      0      0       0       0   5.500  132.760
   17 086   155   154  16.868     1  1.432    457      0      0    501    857    857      0      0    0.0  0.000    400   0.00   0.00   1.00   0.24   0.00   0.00   0.00   1.00   4.68  400.0   0.00      0    400    335.4   0.00   0.00 0.6427   0.028   0.011   0.010   0.007   0.006   0.005   0.005   0.001   0.000   0.000      0      0      0       0       0   7.500  137.357
   17 087   156   155  17.166     1  1.518    483      0      0    547    908    908      0      0    0.0  0.000    425   0.00   0.00   1.00   0.27   0.00   0.00   0.00   1.00   4.52  400.0   0.00      0    425    333.5   0.00   0.00 0.6527   0.028   0.012   0.010   0.008   0.006   0.005   0.005   0.002   0.000   0.000      0      0      0       0       0   9.597  143.311
   17 088   157   156  17.526     1  1.617    512      0      0    601    968    968      0      0    0.0  0.000    455   0.00   0.00   1.00   0.31   0.00   0.00   0.00   1.00   4.34  400.0   0.00      0    455    331.2   0.00   0.00 0.6645   0.029   0.013   0.011   0.008   0.007   0.006   0.006   0.003   0.000   0.000      0      0      0       0       0  11.500  150.527
   17 089   158   157  17.844     1  1.697    537      0      0    644   1016   1016      0      0    0.0  0.000    479   0.00   0.00   1.00   0.36   0.00   0.00   0.00   1.00   4.23  400.0   0.00      0    479    329.3   0.00   0.00 0.6749   0.029   0.014   0.012   0.009   0.008   0.007   0.006   0.004   0.000   0.000      0      0      0       0       0  10.000  156.874
   17 090   159   158  18.277     1  1.802    569      0      0    702   1081   1081      0      0    0.0  0.000    512   0.00   0.00   1.00   0.39   0.00   0.00   0.00   1.00   4.06  400.0   0.00      0    512    326.8   0.00   0.00 0.6888   0.029   0.015   0.013   0.010   0.008   0.007   0.007   0.005   0.000   0.000      0      0      0       0       0  13.500  165.537
   17 091   160   159  18.682     1  1.894    597      0      0    751   1137   1137      0      0    0.0  0.000    540   0.00   0.00   1.00   0.44   0.00   0.00   0.00   1.00   3.93  400.0   0.00      0    540    324.6   0.00   0.00 0.7018   0.028   0.016   0.014   0.011   0.009   0.008   0.008   0.006   0.000   0.000      0      0      0       0       0  12.500  173.647
   17 092   161   160  19.092     1  1.981    624      0      0    798   1191   1191      0      0    0.0  0.000    567   0.00   0.00   1.00   0.47   0.00   0.00   0.00   1.00   3.81  400.0   0.00      0    567    322.4   0.00   0.00 0.7130   0.028   0.017   0.015   0.012   0.010   0.009   0.008   0.007   0.000   0.000      0      0      0       0       0  12.500  181.844
   17 093   162   161  19.457     1  2.054    647      0      0    836   1237   1237      0      0    0.0  0.000    590   0.00   0.00   1.00   0.50   0.00   0.00   0.00   1.00   3.73  400.0   0.00      0    590    320.5   0.00   0.00 0.7230   0.029   0.018   0.015   0.012   0.010   0.009   0.009   0.008   0.000   0.000      0      0      0       0       0  11.000  189.133
   17 094   163   162  19.708     1  2.099    662      0      0    858   1267   1267      0      0    0.0  0.000    605   0.00   0.00   1.00   0.52   0.00   0.00   0.00   1.00   3.69  400.0   0.00      0    605    319.2   0.00   0.00 0.7297   0.030   0.018   0.016   0.013   0.011   0.010   0.009   0.008   0.000   0.000      0      0      0       0       0   7.500  194.154
   17 095   164   163  19.978     1  2.148    678      0      0    881   1299   1299      0      0    0.0  0.000    621   0.00   0.00   1.00   0.53   0.00   0.00   0.00   1.00   3.65  400.0   0.00      0    621    317.9   0.00   0.00 0.7369   0.030   0.019   0.016   0.013   0.011   0.010   0.009   0.008   0.001   0.000      0      0      0       0       0   8.000  199.564
   17 096   165   164  20.132     1  2.174    687      0      0    890   1317   1317      0      0    0.0  0.000    630   0.00   0.00   1.00   0.54   0.00   0.00   0.00   1.00   3.64  400.0   0.00      0    630    317.2   0.00   0.00 0.7410   0.030   0.019   0.017   0.013   0.011   0.010   0.009   0.008   0.001   0.000      0      0      0       0       0   4.500  202.638
   17 097   166   165  20.442     1  2.230    705      0      0    918   1353   1353      0      0    0.0  0.000    648   0.00   0.00   1.00   0.54   0.00   0.00   0.00   1.00   3.58  400.0   0.00      0    648    315.8   0.00   0.00 0.7491   0.030   0.019   0.017   0.014   0.012   0.010   0.010   0.009   0.001   0.000      0      0      0       0       0   9.000  208.844
   17 098   167   166  20.808     1  2.294    726      0      0    950   1395   1395      0      0    0.0  0.000    669   0.00   0.00   1.00   0.55   0.00   0.00   0.00   1.00   3.51  400.0   0.00      0    669    314.1   0.00   0.00 0.7586   0.030   0.020   0.017   0.014   0.012   0.011   0.010   0.009   0.001   0.000      0      0      0       0       0  10.500  216.154
   17 099   168   167  21.229     1  2.365    749      0      0    988   1442   1442      0      0    0.0  0.000    692   0.00   0.00   1.00   0.57   0.00   0.00   0.00   1.00   3.43  400.0   0.00      0    692    312.3   0.00   0.00 0.7694   0.029   0.020   0.018   0.014   0.012   0.011   0.010   0.009   0.001   0.000      0      0      0       0       0  12.000  224.587
   17 100   169   168  21.726     1  2.445    776      0      0   1031   1495   1495      0      0    0.0  0.000    719   0.00   0.00   1.00   0.59   0.00   0.00   0.00   1.00   3.34  400.0   0.00      0    719    310.2   0.00   0.00 0.7820   0.029   0.021   0.018   0.015   0.013   0.011   0.011   0.010   0.002   0.000      0      0      0       0       0  14.000  234.514
   17 101   170   169  21.958     1  2.480    788      0      0   1044   1519   1519      0      0    0.0  0.000    731   0.00   0.00   1.00   0.62   0.00   0.00   0.00   1.00   3.33  400.0   0.00      0    731    309.3   0.00   0.00 0.7879   0.029   0.022   0.019   0.016   0.013   0.012   0.011   0.010   0.002   0.000      0      0      0       0       0   6.500  239.165
   17 102   171   170  22.283     1  2.529    804      0      0   1066   1551   1551      0      0    0.0  0.000    747   0.00   0.00   1.00   0.62   0.00   0.00   0.00   1.00   3.29  400.0   0.00      0    747    308.1   0.00   0.00 0.7960   0.029   0.022   0.019   0.016   0.014   0.012   0.011   0.010   0.003   0.000      0      0      0       0       0   9.000  245.661
   17 103   172   171  22.647     1  2.584    822      0      0   1092   1587   1587      0      0    0.0  0.000    765   0.00   0.00   1.00   0.62   0.00   0.00   0.00   1.00   3.24  400.0   0.00      0    765    306.7   0.00   0.00 0.8050   0.028   0.022   0.020   0.016   0.014   0.012   0.011   0.010   0.003   0.000      0      0      0       0       0  10.000  252.941
   17 104   173   172  22.959     1  2.629    837      0      0   1111   1618   1618      0      0    0.0  0.000    780   0.00   0.00   1.00   0.64   0.00   0.00   0.00   1.00   3.21  400.0   0.00      0    780    305.6   0.00   0.00 0.8127   0.028   0.022   0.020   0.016   0.014   0.013   0.012   0.011   0.003   0.000      0      0      0       0       0   8.500  259.181
   17 105   174   173  23.348     1  2.676    856      0      0   1137   1655   1655      0      0    0.0  0.000    799   0.00   0.00   1.00   0.64   0.00   0.00   0.00   1.00   3.17  400.0   0.00      0    799    304.2   0.00   0.00 0.8222   0.028   0.023   0.020   0.017   0.014   0.013   0.012   0.011   0.003   0.000      0      0      0       0       0  10.500  266.952
   17 106   175   174  23.590     1  2.699    867      0      0   1148   1678   1678      0      0    0.0  0.000    810   0.00   0.00   1.00   0.65   0.00   0.00   0.00   1.00   3.15  400.0   0.00      0    810    303.4   0.00   0.00 0.8280   0.027   0.023   0.021   0.017   0.015   0.013   0.012   0.011   0.004   0.000      0      0      0       0       0   6.500  271.802
   17 107   176   175  23.778     1  2.720    876      0      0   1154   1695   1695      0      0    0.0  0.000    819   0.00   0.00   1.00   0.65   0.00   0.00   0.00   1.00   3.15  400.0   0.00      0    819    302.8   0.00   0.00 0.8326   0.028   0.023   0.021   0.017   0.015   0.013   0.012   0.011   0.004   0.000      0      0      0       0       0   5.000  275.563
   17 108   177   176  23.892     1  2.732    881      0      0   1153   1705   1705      0      0    0.0  0.000    824   0.00   0.00   1.00   0.65   0.00   0.00   0.00   1.00   3.15  400.0   0.00      0    824    302.4   0.00   0.00 0.8353   0.028   0.023   0.021   0.017   0.015   0.013   0.012   0.011   0.004   0.000      0      0      0       0       0   3.000  277.836
   17 109   178   177  23.968     1  2.738    884      0      0   1147   1711   1711      0      0    0.0  0.000    826   0.00   0.00   1.00   0.65   0.00   0.00   0.00   1.00   3.17  400.0   0.00      0    826    302.2   0.00   0.00 0.8371   0.028   0.023   0.021   0.017   0.015   0.013   0.012   0.011   0.004   0.000      0      0      0       0       0   2.000  279.364
   17 110   179   178  24.091     1  2.749    888      0      0   1144   1719   1719      0      0    0.0  0.000    831   0.00   0.00   1.00   0.64   0.00   0.00   0.00   1.00   3.17  400.0   0.00      0    831    301.8   0.00   0.00 0.8400   0.027   0.023   0.021   0.017   0.015   0.013   0.012   0.011   0.004   0.000      0      0      0       0       0   3.195  281.821
   17 111   180   179  24.296     1  2.776    898      0      0   1152   1739   1739      0      0    0.0  0.000    840   0.00   0.00   1.00   0.64   0.00   0.00   0.00   1.00   3.15  400.0   0.00      0    840    301.1   0.00   0.00 0.8447   0.027   0.023   0.021   0.017   0.015   0.013   0.012   0.011   0.004   0.000      0      0      0       0       0   5.300  285.928
   17 112   181   180  24.550     1  2.809    910      0      0   1165   1763   1763      0      0    0.0  0.000    853   0.00   0.00   1.00   0.64   0.00   0.00   0.00   1.00   3.13  400.0   0.00      0    853    300.3   0.00   0.00 0.8506   0.027   0.023   0.021   0.017   0.015   0.013   0.012   0.011   0.004   0.000      0      0      0       0       0   6.500  291.001
   17 113   182   181  24.715     1  2.829    918      0      0   1168   1778   1778      0      0    0.0  0.000    860   0.00   0.00   1.00   0.64   0.00   0.00   0.00   1.00   3.12  400.0   0.00      0    860    299.8   0.00   0.00 0.8544   0.028   0.023   0.021   0.017   0.015   0.013   0.012   0.011   0.004   0.000      0      0      0       0       0   4.195  294.297
   17 114   183   182  25.004     1  2.867    931      0      0   1184   1806   1806      0      0    0.0  0.000    874   0.00   0.00   1.00   0.64   0.00   0.00   0.00   1.00   3.09  400.0   0.00      0    874    299.0   0.00   0.00 0.8610   0.028   0.023   0.021   0.017   0.015   0.014   0.012   0.011   0.004   0.000      0      0      0       0       0   7.298  300.071
   17 115   184   183  25.282     1  2.902    944      0      0   1198   1832   1832      0      0    0.0  0.000    887   0.00   0.00   1.00   0.65   0.00   0.00   0.00   1.00   3.06  400.0   0.00      0    887    298.2   0.00   0.00 0.8673   0.028   0.024   0.021   0.018   0.015   0.014   0.012   0.011   0.004   0.000      0      0      0       0       0   7.000  305.645
   17 116   185   184  25.382     1  2.912    948      0      0   1195   1840   1840      0      0    0.0  0.000    891   0.00   0.00   1.00   0.66   0.00   0.00   0.00   1.00   3.06  400.0   0.00      0    891    297.9   0.00   0.00 0.8695   0.028   0.024   0.021   0.018   0.015   0.014   0.013   0.011   0.005   0.000      0      0      0       0       0   2.500  307.649
   17 117   186   185  25.463     1  2.919    951      0      0   1188   1845   1845      0      0    0.0  0.000    894   0.00   0.00   1.00   0.66   0.00   0.00   0.00   1.00   3.06  400.0   0.00      0    894    297.7   0.00   0.00 0.8713   0.028   0.024   0.021   0.018   0.015   0.014   0.013   0.011   0.005   0.000      0      0      0       0       0   2.000  309.262
   17 118   187   186  25.565     1  2.931    955      0      0   1185   1854   1854      0      0    0.0  0.000    898   0.00   0.00   1.00   0.65   0.00   0.00   0.00   1.00   3.06  400.0   0.00      0    898    297.4   0.00   0.00 0.8736   0.028   0.024   0.021   0.018   0.015   0.014   0.012   0.011   0.005   0.000      0      0      0       0       0   2.500  311.291
   17 119   188   187  25.830     1  2.966    968      0      0   1197   1878   1878      0      0    0.0  0.000    910   0.00   0.00   1.00   0.65   0.00   0.00   0.00   1.00   3.03  400.0   0.00      0    910    296.7   0.00   0.00 0.8795   0.028   0.024   0.021   0.018   0.015   0.014   0.012   0.011   0.005   0.000      0      0      0       0       0   6.500  316.598
   17 120   189   188  26.138     1  3.005    982      0      0   1213   1906   1906      0      0    0.0  0.000    924   0.00   0.00   1.00   0.66   0.00   0.00   0.00   1.00   3.00  400.0   0.00      0    924    295.9   0.00   0.00 0.8862   0.028   0.024   0.021   0.018   0.015   0.014   0.013   0.011   0.005   0.000      0      0      0       0       0   7.500  322.757
   17 121   190   189  26.468     1  3.046    996      0      0   1231   1936   1936      0      0    0.0  0.000    939   0.00   0.00   1.00   0.66   0.00   0.00   0.00   1.00   2.96  400.0   0.00      0    939    295.0   0.00   0.00 0.8934   0.028   0.024   0.021   0.018   0.016   0.014   0.013   0.012   0.005   0.000      0      0      0       0       0   8.000  329.365
   17 122   191   190  26.842     1  3.092   1013      0      0   1251   1969   1969      0      0    0.0  0.000    955   0.00   0.00   1.00   0.67   0.00   0.00   0.00   1.00   2.92  400.0   0.00      0    955    294.1   0.00   0.00 0.9016   0.029   0.024   0.022   0.018   0.016   0.014   0.013   0.012   0.005   0.000      0      0      0       0       0   9.000  336.840
   17 123   192   191  27.260     1  3.094   1031      0      0   1274   2004   2004      0      0    0.0  0.000    973   0.00   0.00   1.00   0.68   0.00   0.00   0.00   1.00   2.87  400.0   0.00      0    973    293.1   0.00   0.00 0.9105   0.029   0.024   0.022   0.018   0.016   0.014   0.013   0.012   0.005   0.000      0      0      0       0       0  10.000  345.192
   17 124   193   192  27.637     1  3.090   1046      0      0   1293   2035   2035      0      0    0.0  0.000    989   0.00   0.00   1.00   0.69   0.00   0.00   0.00   1.00   2.84  400.0   0.00      0    989    292.3   0.00   0.00 0.9186   0.029   0.025   0.022   0.019   0.016   0.015   0.013   0.012   0.006   0.000      0      0      0       0       0   9.000  352.748
   17 125   194   193  28.102     1  3.108   1065      0      0   1317   2073   2073      0      0    0.0  0.000   1008   0.00   0.00   1.00   0.70   0.00   0.00   0.00   1.00   2.79  400.0   0.00      0   1008    291.3   0.00   0.00 0.9285   0.029   0.025   0.023   0.019   0.016   0.015   0.013   0.012   0.006   0.000      0      0      0       0       0  11.000  362.031
   17 126   195   194  28.632     1  3.129   1086      0      0   1346   2115   2115      0      0    0.0  0.000   1029   0.00   0.00   1.00   0.71   0.00   0.00   0.00   1.00   2.74  400.0   0.00      0   1029    290.2   0.00   0.00 0.9398   0.030   0.025   0.023   0.019   0.017   0.015   0.014   0.012   0.006   0.000      0      0      0       0       0  12.500  372.633
   17 127   196   195  29.100     1  3.142   1104      0      0   1360   2151   2151      0      0    0.0  0.000   1047   0.00   0.00   1.00   0.72   0.00   0.00   0.00   1.00   2.71  400.0   0.00      0   1047    289.2   0.00   0.00 0.9497   0.030   0.026   0.023   0.019   0.017   0.015   0.014   0.013   0.006   0.000      0      0      0       0       0  11.000  382.008
   17 128   197   196  29.464     1  3.153   1117      0      0   1366   2178   2178      0      0    0.0  0.000   1060   0.00   0.00   1.00   0.73   0.00   0.00   0.00   1.00   2.68  400.0   0.00      0   1060    288.6   0.00   0.00 0.9573   0.030   0.026   0.023   0.020   0.017   0.015   0.014   0.013   0.006   0.001      0      0      0       0       0   8.500  389.288
   17 129   198   197  29.766     1  3.166   1128      0      0   1374   2199   2199      0      0    0.0  0.000   1071   0.00   0.00   1.00   0.74   0.00   0.00   0.00   1.00   2.66  400.0   0.00      0   1071    288.0   0.00   0.00 0.9636   0.031   0.026   0.023   0.020   0.017   0.015   0.014   0.013   0.006   0.001      0      0      0       0       0   7.000  395.310
   17 130   199   198  30.096     2  3.255   1163     13      0   1392   2282   2282      0      0    0.0  0.000   1106   0.00   0.00   1.00   0.74   0.00   0.00   0.00   1.00   2.59  813.0   0.00      0   1106    288.0   0.00   0.00 0.9708   0.031   0.026   0.023   0.020   0.017   0.015   0.014   0.013   0.006   0.001      0      0      0       0       0   8.000    2.224
   17 131   200   199  30.616     2  3.323   1191     25      0   1404   2350   2350      0      0    0.0  0.000   1134   0.00   0.00   1.00   0.77   0.00   0.00   0.00   1.00   2.53  851.4   0.00      0   1134    288.0   0.00   0.00 0.9816   0.031   0.026   0.024   0.020   0.017   0.016   0.014   0.013   0.007   0.001      0      0      0       0       0  12.000   14.224
   17 132   201   200  31.310     2  3.378   1217     37      0   1414   2413   2413      0      0    0.0  0.000   1160   0.00   0.00   1.00   0.78   0.00   0.00   0.00   1.00   2.49  854.3   0.00      0   1160    288.0   0.00   0.00 0.9960   0.031   0.026   0.024   0.020   0.018   0.016   0.014   0.013   0.007   0.001      0      0      0       0       0  16.000   30.224
   17 133   202   201  31.960     2  3.255   1239     50      0   1422   2471   2471      0      0    0.0  0.000   1182   0.00   0.00   1.00   0.79   0.00   0.00   0.00   1.00   2.45  846.8   0.00      0   1182    288.0   0.00   0.00 1.0095   0.031   0.026   0.024   0.020   0.018   0.016   0.014   0.013   0.007   0.001      0      0      0       0       0  15.000   45.224
   17 134   203   202  32.588     2  3.177   1259     62      0   1428   2522   2522      0      0    0.0  0.000   1201   0.00   0.00   1.00   0.80   0.00   0.00   0.00   1.00   2.42  834.9   0.00      0   1201    288.0   0.00   0.00 1.0226   0.031   0.027   0.024   0.020   0.018   0.016   0.014   0.013   0.007   0.001      0      0      0       0       0  14.500   59.724
   17 135   204   203  33.151     2  3.130   1277     75      0   1433   2572   2572      0      0    0.0  0.000   1220   0.00   0.00   1.00   0.81   0.00   0.00   0.00   1.00   2.39  822.4   0.00      0   1220    288.0   0.00   0.00 1.0343   0.031   0.027   0.024   0.020   0.018   0.016   0.014   0.013   0.007   0.001      0      0      0       0       0  13.000   72.724
   17 136   205   204  33.736     2  3.121   1299     92      0   1442   2632   2632      0      0    0.0  0.000   1242   0.00   0.00   1.00   0.81   0.00   0.00   0.00   1.00   2.36  808.4   0.00      0   1242    288.0   0.00   0.00 1.0464   0.031   0.027   0.024   0.020   0.018   0.016   0.014   0.013   0.007   0.001      0      0      0       0       0  13.500   86.224
   17 137   206   205  34.386     2  3.125   1321    111      0   1453   2695   2695      0      0    0.0  0.000   1264   0.00   0.00   1.00   0.81   0.00   0.00   0.00   1.00   2.32  791.7   0.00      0   1264    288.0   0.00   0.00 1.0599   0.031   0.027   0.024   0.020   0.018   0.016   0.014   0.013   0.007   0.001      0      0      0       0       0  15.000  101.224
   17 138   207   206  35.144     2  3.124   1339    128      0   1459   2749   2749      0      0    0.0  0.000   1282   0.00   0.00   1.00   0.82   0.00   0.00   0.00   1.00   2.30  770.6   0.00      0   1282    288.0   0.00   0.00 1.0756   0.031   0.027   0.024   0.020   0.018   0.016   0.014   0.013   0.007   0.002      0      0      0       0       0  17.474  118.698
   17 139   208   207  35.815     2  3.116   1353    143      0   1461   2791   2791      0      0    0.0  0.000   1296   0.00   0.00   1.00   0.82   0.00   0.00   0.00   1.00   2.28  750.9   0.00      0   1296    288.0   0.00   0.00 1.0896   0.031   0.027   0.024   0.020   0.018   0.016   0.015   0.013   0.007   0.002      0      0      0       0       0  15.500  134.198
   17 140   209   208  36.270     2  2.983   1369    163      0   1467   2844   2844      0      0    0.0  0.000   1312   0.00   0.00   1.00   0.82   0.00   0.00   0.00   1.00   2.26  737.7   0.00      0   1312    288.0   0.00   0.00 1.0990   0.031   0.027   0.024   0.020   0.018   0.016   0.014   0.013   0.007   0.002      0      0      0       0       0  10.500  144.698
[...]
   17 167   236   235  65.005     4  1.193    710   1749      0    827   3112   3112      0      0    0.0  0.000    653   0.00   0.00   1.00   0.24   0.00   0.00   0.00   1.00   2.15  400.0   0.00      0    653    288.0   0.00   0.00 1.4269   0.017   0.011   0.010   0.009   0.008   0.007   0.007   0.006   0.005   0.003      0      0      0       0       0  17.000   80.128
   17 168   237   236  65.630     4  1.172    710   1882      0    836   3245   3245      0      0    0.0  0.000    653   0.00   0.00   1.00   0.15   0.00   0.00   0.00   1.00   2.15  400.0   0.00      0    653    288.0   0.00   0.00 1.4376   0.017   0.012   0.010   0.009   0.008   0.007   0.007   0.007   0.005   0.003      0      0      0       0       0  15.000   95.128
   17 169   238   237  66.234     4  1.156    710   2033      0    844   3396   3396      0      0    0.0  0.000    653   0.00   0.00   1.00   0.03   0.00   0.00   0.00   1.00   2.15  400.0   0.00      0    653    288.0   0.00   0.00 1.4480   0.017   0.012   0.010   0.009   0.008   0.007   0.007   0.007   0.005   0.003      0      0      0       0       0  14.500  109.628
   17 170   239   238  67.022     4  1.143    710   2178      0    852   3541   3541      0      0    0.0  0.000    653   0.00   0.00   1.00   0.00   0.00   0.00   0.00   1.00   2.15  400.0   0.00      0    653    288.0   0.00   0.00 1.4615   0.017   0.012   0.011   0.009   0.008   0.008   0.007   0.007   0.005   0.003      0      0      0       0       0  18.889  128.517
   17 171   240   239  67.878     4  1.125    710   2297      0    857   3660   3660      0      0    0.0  0.000    653   0.00   0.00   1.00   0.00   0.00   0.00   0.00   1.00   2.15  400.0   0.00      0    653    288.0   0.00   0.00 1.4762   0.017   0.012   0.011   0.009   0.008   0.008   0.007   0.007   0.005   0.003      0      0      0       0       0  20.556  149.072
   17 172   241   240  68.774     4  1.105    710   2402      0    860   3765   3765      0      0    0.0  0.000    653   0.00   0.00   1.00   0.00   0.00   0.00   0.00   1.00   2.15  400.0   0.00      0    653    288.0   0.00   0.00 1.4916   0.017   0.012   0.011   0.009   0.008   0.008   0.007   0.007   0.005   0.003      0      0      0       0       0  21.500  170.572
   17 173   242   241  69.681     4  1.084    710   2511      0    863   3874   3874      0      0    0.0  0.000    653   0.00   0.00   1.00   0.00   0.00   0.00   0.00   1.00   2.15  400.0   0.00      0    653    288.0   0.00   0.00 1.5071   0.017   0.012   0.011   0.009   0.008   0.008   0.007   0.007   0.005   0.003      0      0      0       0       0  21.765  192.337
   17 174   243   242  70.374     5  1.064    710   2062    541    870   3425   3966   8789   8789    6.2  0.136    653   0.00   0.00   1.00   0.00   0.00   0.00   0.00   1.00   1.62  400.0   0.00      0    653    288.0   0.00   0.00 1.5195   0.017   0.012   0.011   0.009   0.009   0.008   0.007   0.007   0.005   0.003      0      0      0       0       0  21.679   14.016
   17 175   244   243  70.907     5  1.063    710   1971    735    876   3334   4069   8789   8789    8.4  0.181    653   0.00   0.00   1.00   0.00   0.00   0.00   0.00   1.00   1.29  400.0   0.00      0    653    288.0   0.00   0.00 1.5309   0.017   0.012   0.011   0.009   0.009   0.008   0.007   0.007   0.005   0.003      0      0      0       0       0  20.000   34.016
   17 176   245   244  71.360     5  1.060    710   1922    866    877   3285   4150   8789   8789    9.8  0.209    653   0.00   0.00   1.00   0.00   0.00   0.00   0.00   1.00   1.07  400.0   0.00      0    653    288.0   0.00   0.00 1.5406   0.017   0.012   0.011   0.009   0.009   0.008   0.007   0.007   0.005   0.003      0      0      0       0       0  17.000   51.016
   17 177   246   245  71.913     5  1.057    710   1942    951    881   3305   4255   8789   8789   10.8  0.223    653   0.00   0.00   1.00   0.10   0.00   0.00   0.00   1.00   0.93  400.0   0.00      0    653    288.0   0.00   0.00 1.5524   0.017   0.012   0.011   0.009   0.009   0.008   0.007   0.007   0.005   0.003      0      0      0       0       0  20.719   71.734
   17 178   247   246  72.473     5  1.051    710   1975   1003    883   3338   4341   8789   8789   11.4  0.231    653   0.00   0.00   1.00   0.36   0.00   0.00   0.00   1.00   0.85  400.0   0.00      0    653    288.0   0.00   0.00 1.5643   0.017   0.012   0.011   0.009   0.009   0.008   0.007   0.007   0.005   0.004      0      0      0       0       0  21.000   92.734
   17 179   248   247  73.006     5  1.040    710   2005   1040    883   3368   4409   8789   8789   11.8  0.236    653   0.00   0.00   1.00   0.49   0.00   0.00   0.00   1.00   0.79  400.0   0.00      0    653    288.0   0.00   0.00 1.5757   0.017   0.012   0.011   0.009   0.009   0.008   0.007   0.007   0.005   0.004      0      0      0       0       0  20.000  112.734
   17 180   249   248  73.473     5  1.026    710   2033   1071    882   3396   4467   8789   8789   12.2  0.240    653   0.00   0.00   1.00   0.53   0.00   0.00   0.00   1.00   0.75  400.0   0.00      0    653    288.0   0.00   0.00 1.5857   0.017   0.012   0.011   0.009   0.009   0.008   0.007   0.007   0.005   0.004      0      0      0       0       0  17.500  130.234
   17 181   250   249  73.940     5  1.011    710   2084   1098    884   3448   4546   8789   8789   12.5  0.242    653   0.00   0.00   1.00   0.48   0.00   0.00   0.00   1.00   0.71  400.0   0.00      0    653    288.0   0.00   0.00 1.5957   0.016   0.012   0.011   0.009   0.008   0.008   0.007   0.007   0.005   0.004      0      0      0       0       0  17.500  147.734
   17 182   251   250  74.380     5  0.995    710   2121   1121    884   3485   4605   8789   8789   12.7  0.243    653   0.00   0.00   1.00   0.52   0.00   0.00   0.00   1.00   0.68  400.0   0.00      0    653    288.0   0.00   0.00 1.6051   0.016   0.012   0.011   0.009   0.008   0.008   0.007   0.007   0.005   0.004      0      0      0       0       0  16.500  164.234
   17 183   252   251  74.806     5  0.977    710   2150   1141    883   3513   4654   8789   8789   13.0  0.245    653   0.00   0.00   1.00   0.44   0.00   0.00   0.00   1.00   0.66  400.0   0.00      0    653    288.0   0.00   0.00 1.6142   0.016   0.012   0.011   0.009   0.008   0.008   0.007   0.007   0.005   0.004      0      0      0       0       0  16.000  180.234
   17 184   253   252  75.260     5  0.960    710   2198   1170    886   3561   4730   8789   8789   13.3  0.247    653   0.00   0.00   1.00   0.28   0.00   0.00   0.00   1.00   0.63  400.0   0.00      0    653    288.0   0.00   0.00 1.6239   0.016   0.012   0.011   0.009   0.008   0.008   0.007   0.007   0.005   0.004      0      0      0       0       0  17.000  197.234
   17 185   254   253  75.740     5  0.943    710   2240   1205    889   3603   4807   8789   8789   13.7  0.251    653   0.00   0.00   1.00   0.19   0.00   0.00   0.00   1.00   0.61  400.0   0.00      0    653    288.0   0.00   0.00 1.6341   0.016   0.012   0.011   0.009   0.008   0.008   0.007   0.007   0.005   0.004      0      0      0       0       0  18.000  215.234
   17 186   255   254  76.253     5  0.925    710   2270   1252    893   3633   4885   8789   8789   14.2  0.256    653   0.00   0.00   1.00   0.01   0.00   0.00   0.00   1.00   0.59  400.0   0.00      0    653    288.0   0.00   0.00 1.6451   0.016   0.012   0.011   0.009   0.008   0.008   0.007   0.007   0.005   0.004      0      0      0       0       0  19.263  234.497
   17 187   256   255  76.809     5  0.908    710   2282   1307    896   3645   4951   8789   8789   14.9  0.264    653   0.00   0.00   1.00   0.00   0.00   0.00   0.00   1.00   0.57  400.0   0.00      0    653    288.0   0.00   0.00 1.6570   0.016   0.012   0.011   0.009   0.008   0.008   0.007   0.007   0.005   0.004      0      0      0       0       0  20.842  255.340
   17 188   257   256  77.387     5  0.888    710   2271   1370    896   3634   5004   8789   8789   15.6  0.274    653   0.00   0.00   1.00   0.00   0.00   0.00   0.00   1.00   0.56  400.0   0.00      0    653    288.0   0.00   0.00 1.6693   0.016   0.012   0.011   0.009   0.008   0.008   0.007   0.007   0.005   0.004      0      0      0       0       0  21.679  277.018
   17 189   258   257  77.985     5  0.865    710   2249   1443    896   3612   5055   8789   8789   16.4  0.285    653   0.00   0.00   1.00   0.00   0.00   0.00   0.00   1.00   0.54  400.0   0.00      0    653    288.0   0.00   0.00 1.6821   0.016   0.012   0.011   0.009   0.008   0.008   0.007   0.006   0.005   0.004      0      0      0       0       0  22.429  299.447
   17 190   259   258  78.557     5  0.840    710   2215   1524    894   3578   5102   8789   8789   17.3  0.299    653   0.00   0.00   1.00   0.00   0.00   0.00   0.00   1.00   0.53  400.0   0.00      0    653    288.0   0.00   0.00 1.6944   0.016   0.012   0.010   0.009   0.008   0.007   0.007   0.006   0.005   0.004      0      0      0       0       0  21.455  320.901
   17 191   260   259  79.104     5  0.814    710   2174   1612    893   3537   5149   8789   8789   18.3  0.313    653   0.00   0.00   1.00   0.00   0.00   0.00   0.00   1.00   0.51  400.0   0.00      0    653    288.0   0.00   0.00 1.7060   0.016   0.011   0.010   0.009   0.008   0.007   0.007   0.006   0.005   0.004      0      0      0       0       0  20.500  341.401
   17 192   261   260  79.597     5  0.788    710   2131   1705    892   3494   5200   8789   8789   19.4  0.328    653   0.00   0.00   1.00   0.00   0.00   0.00   0.00   1.00   0.50  400.0   0.00      0    653    288.0   0.00   0.00 1.7147   0.016   0.011   0.010   0.009   0.008   0.007   0.007   0.006   0.005   0.004      0      0      0       0       0  18.500  359.901
   17 193   262   261  80.104     5  0.763    710   2073   1806    890   3436   5243   8789   8789   20.6  0.345    653   0.00   0.00   1.00   0.00   0.00   0.00   0.00   1.00   0.49  400.0   0.00      0    653    288.0   0.00   0.00 1.7236   0.016   0.011   0.010   0.009   0.008   0.007   0.007   0.006   0.005   0.004      0      0      0       0       0  19.000  378.901
   17 194   263   262  80.504     5  0.735    710   2026   1916    890   3389   5304   8789   8789   21.8  0.361    653   0.00   0.00   1.00   0.00   0.00   0.00   0.00   1.00   0.48  400.0   0.00      0    653    288.0   0.00   0.00 1.7306   0.016   0.011   0.010   0.009   0.008   0.007   0.007   0.006   0.005   0.004      0      0      0       0       0  15.000  393.901
   17 195   264   263  80.891     5  0.713    710   1952   2034    887   3315   5348   8789   8789   23.1  0.380    653   0.00   0.00   1.00   0.00   0.00   0.00   0.00   1.00   0.47  400.0   0.00      0    653    288.0   0.00   0.00 1.7374   0.016   0.011   0.010   0.009   0.008   0.007   0.007   0.006   0.005   0.004      0      0      0       0       0  14.500  408.401
   17 196   265   264  81.291     5  0.691    710   1875   2155    884   3238   5393   8789   8789   24.5  0.400    653   0.00   0.00   1.00   0.00   0.00   0.00   0.00   1.00   0.46  400.0   0.00      0    653    288.0   0.00   0.00 1.7445   0.016   0.011   0.010   0.009   0.008   0.007   0.007   0.006   0.005   0.004      0      0      0       0       0  15.000  423.401
   17 197   266   265  81.704     5  0.667    710   1799   2285    881   3162   5447   8789   8789   26.0  0.420    653   0.00   0.00   1.00   0.00   0.00   0.00   0.00   1.00   0.45  400.0   0.00      0    653    288.0   0.00   0.00 1.7517   0.015   0.011   0.010   0.009   0.008   0.007   0.007   0.006   0.005   0.004      0      0      0       0       0  15.500  438.901
   17 198   267   266  82.184     5  0.641    710   1708   2424    877   3071   5495   8789   8789   27.6  0.441    653   0.00   0.00   1.00   0.00   0.00   0.00   0.00   1.00   0.44  400.0   0.00      0    653    288.0   0.00   0.00 1.7602   0.015   0.011   0.010   0.009   0.008   0.007   0.007   0.006   0.005   0.004      0      0      0       0       0  18.000  456.901
   17 199   268   267  82.711     5  0.610    710   1615   2565    873   2978   5543   8789   8789   29.2  0.463    653   0.00   0.00   1.00   0.00   0.00   0.00   0.00   1.00   0.43  400.0   0.00      0    653    288.0   0.00   0.00 1.7694   0.015   0.011   0.010   0.009   0.008   0.007   0.006   0.006   0.005   0.004      0      0      0       0       0  19.750  476.651
   17 200   269   268  83.309     5  0.574    710   1514   2707    867   2877   5584   8789   8789   30.8  0.485    653   0.00   0.00   1.17   0.00   0.00   0.00   0.00   1.00   0.41  400.0   0.00      0    653    288.0   0.00   0.00 1.7799   0.015   0.011   0.010   0.009   0.008   0.007   0.006   0.006   0.005   0.004      0      0      0       0       0  22.441  499.092
   17 201   270   269  83.855     5  0.525    710   1407   2847    859   2770   5616   8789   8789   32.4  0.507    653   0.00   0.00   1.00   0.00   0.00   0.00   0.00   1.00   0.40  400.0   0.00      0    653    288.0   0.00   0.00 1.7895   0.015   0.011   0.010   0.009   0.008   0.007   0.006   0.006   0.005   0.004      0      0      0       0       0  20.462  519.554
   17 202   271   270  84.398     5  0.485    710   1326   2973    852   2689   5662   8789   8789   33.8  0.525    653   0.00   0.00   1.00   0.00   0.00   0.00   0.00   1.00   0.39  400.0   0.00      0    653    288.0   0.00   0.00 1.7991   0.015   0.011   0.010   0.009   0.008   0.007   0.006   0.006   0.005   0.003      0      0      0       0       0  20.367  539.921
   17 203   272   271  84.967     5  0.443    710   1326   3011    843   2689   5700   8789   8789   34.3  0.528    653   0.00   0.00   1.00   0.00   0.00   0.00   0.00   1.00   0.38  400.0   0.00      0    653    288.0   0.00   0.00 1.8091   0.015   0.011   0.010   0.009   0.008   0.007   0.006   0.006   0.005   0.003      0      0      0       0       0  21.346  561.267
   17 204   273   272  85.474     5  0.398    710   1326   3041    835   2689   5730   8789   8789   34.6  0.531    653   0.00   0.00   1.00   0.00   0.00   0.00   0.00   1.00   0.37  400.0   0.00      0    653    288.0   0.00   0.00 1.8180   0.015   0.011   0.010   0.008   0.008   0.007   0.006   0.006   0.005   0.003      0      0      0       0       0  19.000  580.267
   17 205   274   273  85.860     5  0.356    710   1326   3061    826   2689   5750   8789   8789   34.8  0.532    653   0.00   0.00   1.00   0.00   0.00   0.00   0.00   1.00   0.37  400.0   0.00      0    653    288.0   0.00   0.00 1.8248   0.014   0.011   0.010   0.008   0.008   0.007   0.006   0.006   0.005   0.003      0      0      0       0       0  14.500  594.767
   17 206   275   274  86.234     5  0.323    710   1326   3083    818   2689   5772   8789   8789   35.1  0.534    653   0.00   0.00   1.00   0.00   0.00   0.00   0.00   1.00   0.36  400.0   0.00      0    653    288.0   0.00   0.00 1.8313   0.014   0.010   0.009   0.008   0.008   0.007   0.006   0.006   0.005   0.003      0      0      0       0       0  14.000  608.767
   17 207   276   275  86.567     5  0.291    710   1326   3096    810   2689   5785   8789   8789   35.2  0.535    653   0.00   0.00   1.00   0.00   0.00   0.00   0.00   1.00   0.36  400.0   0.00      0    653    288.0   0.00   0.00 1.8372   0.014   0.010   0.009   0.008   0.007   0.007   0.006   0.006   0.005   0.003      0      0      0       0       0  12.500  621.267
   17 208   277   276  86.967     5  0.262    710   1326   3112    802   2689   5801   8789   8789   35.4  0.536    653   0.00   0.00   1.00   0.00   0.00   0.00   0.00   1.00   0.35  400.0   0.00      0    653    288.0   0.00   0.00 1.8442   0.014   0.010   0.009   0.008   0.007   0.007   0.006   0.006   0.005   0.003      0      0      0       0       0  15.000  636.267
   17 209   278   277  87.434     5  0.226    710   1326   3133    794   2689   5822   8789   8789   35.6  0.538    653   0.00   0.00   1.00   0.00   0.00   0.00   0.00   1.00   0.34  400.0   0.00      0    653    288.0   0.00   0.00 1.8524   0.014   0.010   0.009   0.008   0.007   0.007   0.006   0.006   0.005   0.003      0      0      0       0       0  17.500  653.767
   17 210   279   278  87.953     5  0.183    710   1326   3151    786   2689   5840   8789   8789   35.9  0.540    653   0.00   0.00   1.00   0.00   0.00   0.00   0.00   1.00   0.34  400.0   0.00      0    653    288.0   0.00   0.00 1.8615   0.014   0.010   0.009   0.008   0.007   0.006   0.006   0.006   0.005   0.003      0      0      0       0       0  19.467  673.233
   17 211   280   279  88.540     5  0.133    710   1326   3162    778   2689   5851   8789   8789   36.0  0.540    653   0.00   0.00   1.00   0.00   0.00   0.00   0.00   1.00   0.33  400.0   0.00      0    653    288.0   0.00   0.00 1.8718   0.014   0.010   0.009   0.008   0.007   0.006   0.006   0.006   0.005   0.003      0      0      0       0       0  22.000  695.233
   17 212   281   280  89.125     5  0.075    710   1326   3168    770   2689   5857   8789   8789   36.0  0.541    653   0.00   0.00   1.00   0.00   0.00   0.00   0.00   1.00   0.32  400.0   0.00      0    653    288.0   0.00   0.00 1.8821   0.013   0.010   0.009   0.008   0.007   0.006   0.006   0.005   0.005   0.003      0      0      0       0       0  21.967  717.200
   17 213   282   281  89.729     5  0.016    710   1326   3169    763   2689   5859   8789   8789   36.1  0.541    653   0.00   0.00   1.00   0.00   0.00   0.00   0.00   1.00   0.32  400.0   0.00      0    653    288.0   0.00   0.00 1.8927   0.013   0.010   0.009   0.008   0.007   0.006   0.006   0.005   0.004   0.003      0      0      0       0       0  22.639  739.839
   17 214   283   282  90.000     6  0.000    710   1326   3169    755   2689   5859   8789   8789   36.1  0.541    653   0.00   0.00   1.00   0.00   0.00   0.00   0.00   1.00   0.32  400.0   0.00      0    653    288.0   0.00   0.00 1.8927   0.013   0.010   0.009   0.008   0.007   0.006   0.006   0.005   0.004   0.003      0      0      0       0       0  22.885   12.724
   17 215   284   283  90.000     7  0.000    710   1326   3169    755   2689   5859   8789   8789   36.1  0.541    653   0.00   0.00   1.00   0.00   0.00   0.00   0.00   1.00   0.32  400.0   0.00      0    653    288.0   0.00   0.00 1.8927   0.013   0.010   0.009   0.008   0.007   0.006   0.006   0.005   0.004   0.003      0      0      0       0       0  22.429   12.000
   17 216   285   284  90.000     7  0.000    710   1326   3169    755   2689   5859   8789   8789   36.1  0.541    653   0.00   0.00   1.00   0.00   0.00   0.00   0.00   1.00   0.32  400.0   0.00      0    653    288.0   0.00   0.00 1.8927   0.013   0.010   0.009   0.008   0.007   0.006   0.006   0.005   0.004   0.003      0      0      0       0       0  22.429   12.000
   17 217   286   285  90.000     7  0.000    710   1326   3169    755   2689   5859   8789   8789   36.1  0.541    653   0.00   0.00   1.00   0.00   0.00   0.00   0.00   1.00   0.32  400.0   0.00      0    653    288.0   0.00   0.00 1.8927   0.013   0.010   0.009   0.008   0.007   0.006   0.006   0.005   0.004   0.003      0      0      0       0       0  22.429   12.000
   17 218   287   286  90.000     7  0.000    710   1326   3169    755   2689   5859   8789   8789   36.1  0.541    653   0.00   0.00   1.00   0.00   0.00   0.00   0.00   1.00   0.32  400.0   0.00      0    653    288.0   0.00   0.00 1.8927   0.013   0.010   0.009   0.008   0.007   0.006   0.006   0.005   0.004   0.003      0      0      0       0       0  22.429   12.000
   17 219   288   287  90.000     7  0.000    710   1326   3169    755   2689   5859   8789   8789   36.1  0.541    653   0.00   0.00   1.00   0.00   0.00   0.00   0.00   1.00   0.32  400.0   0.00      0    653    288.0   0.00   0.00 1.8927   0.013   0.010   0.009   0.008   0.007   0.006   0.006   0.005   0.004   0.003      0      0      0       0       0  22.429   12.000
