*SOIL WATER DAILY OUTPUT FILE

*DSSAT Cropping System Model Ver. 4.8.5.000 -release  FEB 02, 2026 11:47:14

*RUN   1        : 1                         WHAPS048 TUDU1701    1
 MODEL          : WHAPS048 - Wheat
 EXPERIMENT     : TUDU1701 WH
 DATA PATH      :
 TREATMENT  1   : 1                         WHAPS048
  
!                                                                                                                                   Soil water content (mm3/mm3) by soil depth (cm):
!                                                                                                                                   0-5    5-15   15-20   20-30   30-40   40-50   50-60   60-70   70-90  90-110 110-130 130-150 150-170 170-190 190-210
@YEAR DOY   DAS    SWTD    SWXD    ROFC    DRNC    PREC    IR#C    IRRC   LATFC    DTWT    MWTD    TDFD    TDFC    ROFD    ROSD    SW1D    SW2D    SW3D    SW4D    SW5D    SW6D    SW7D    SW8D    SW9D   SW10D   SW11D   SW12D   SW13D   SW14D   SW15D
   16 297     0     545     253       0       0       0       0       0       0     210    0.00     0.0     0.0    0.00    0.00   0.223   0.234   0.249   0.249   0.269   0.269   0.269   0.268   0.268   0.264   0.259   0.259   0.259   0.259   0.259
   16 298     1     545     254       0       0       2       0       0       0     210    0.00     0.0     0.0    0.00    0.00   0.264   0.238   0.248   0.248   0.268   0.268   0.268   0.267   0.267   0.264   0.259   0.259   0.259   0.259   0.259
   16 299     2     546     255       0       0       3       0       0       0     210    0.00     0.0     0.0    0.00    0.00   0.260   0.247   0.247   0.247   0.268   0.268   0.268   0.267   0.267   0.263   0.258   0.259   0.259   0.259   0.259
   16 300     3     545     254       0       0       3       0       0       0     210    0.00     0.0     0.0    0.00    0.00   0.245   0.246   0.251   0.250   0.267   0.267   0.268   0.267   0.267   0.263   0.258   0.258   0.258   0.258   0.258
   16 301     4     544     253       0       0       3       0       0       0     210    0.00     0.0     0.0    0.00    0.00   0.235   0.244   0.251   0.251   0.266   0.267   0.267   0.266   0.267   0.263   0.258   0.258   0.258   0.258   0.258
   16 302     5     542     251       0       0       3       0       0       0     210    0.00     0.0     0.0    0.00    0.00   0.214   0.243   0.250   0.251   0.266   0.267   0.267   0.266   0.267   0.263   0.258   0.258   0.258   0.258   0.258
   16 303     6     542     250       0       0       3       0       0       0     210    0.00     0.0     0.0    0.00    0.00   0.198   0.242   0.250   0.250   0.266   0.267   0.267   0.266   0.266   0.263   0.258   0.258   0.258   0.258   0.258
   16 304     7     541     249       0       0       3       0       0       0     210    0.00     0.0     0.0    0.00    0.00   0.181   0.241   0.250   0.250   0.266   0.267   0.267   0.266   0.266   0.263   0.258   0.258   0.258   0.258   0.258
   16 305     8     540     249       0       0       3       0       0       0     210    0.00     0.0     0.0    0.00    0.00   0.166   0.240   0.249   0.250   0.266   0.267   0.267   0.266   0.266   0.263   0.258   0.258   0.258   0.258   0.258
   16 306     9     539     248       0       0       3       0       0       0     210    0.00     0.0     0.0    0.00    0.00   0.152   0.238   0.249   0.250   0.266   0.266   0.267   0.266   0.266   0.263   0.258   0.258   0.258   0.258   0.258
   16 307    10     538     247       0       0       3       0       0       0     210    0.00     0.0     0.0    0.00    0.00   0.144   0.238   0.248   0.250   0.266   0.266   0.267   0.266   0.266   0.263   0.258   0.258   0.258   0.258   0.258
   16 308    11     538     246       0       0       3       0       0       0     210    0.00     0.0     0.0    0.00    0.00   0.133   0.236   0.248   0.249   0.266   0.266   0.267   0.266   0.266   0.263   0.258   0.258   0.258   0.258   0.258
   16 309    12     537     246       0       0       3       0       0       0     210    0.00     0.0     0.0    0.00    0.00   0.122   0.235   0.248   0.249   0.266   0.266   0.267   0.266   0.266   0.263   0.258   0.258   0.258   0.258   0.258
   16 310    13     546     255       0       0      13       0       0       0     210    0.00     0.0     0.0    0.00    0.00   0.279   0.250   0.255   0.251   0.265   0.266   0.267   0.266   0.266   0.263   0.258   0.258   0.258   0.258   0.258
   16 311    14     554     263       0       0      21       0       0       0     210    0.00     0.0     0.0    0.00    0.00   0.317   0.278   0.285   0.264   0.268   0.266   0.267   0.266   0.266   0.263   0.258   0.258   0.258   0.258   0.258
   16 312    15     554     262       0       0      21       0       0       0     210    0.00     0.0     0.0    0.00    0.00   0.275   0.261   0.268   0.264   0.268   0.271   0.276   0.276   0.275   0.263   0.258   0.258   0.258   0.258   0.258
   16 313    16     553     262       0       0      21       0       0       0     210    0.00     0.0     0.0    0.00    0.00   0.254   0.253   0.260   0.264   0.267   0.271   0.276   0.276   0.275   0.273   0.258   0.258   0.258   0.258   0.258
   16 314    17     556     264       0       0      24       0       0       0     210    0.00     0.0     0.0    0.00    0.00   0.278   0.257   0.268   0.267   0.269   0.273   0.276   0.276   0.275   0.273   0.258   0.258   0.258   0.258   0.258
   16 315    18     562     271       0       0      31       0       0       0     210    0.00     0.0     0.0    0.00    0.00   0.317   0.276   0.290   0.273   0.274   0.275   0.278   0.278   0.275   0.273   0.258   0.258   0.258   0.258   0.258
   16 316    19     567     276       0       0      36       0       0       0     210    0.00     0.0     0.0    0.00    0.00   0.319   0.284   0.309   0.282   0.280   0.280   0.281   0.279   0.276   0.273   0.258   0.257   0.258   0.258   0.258
   16 317    20     567     275       0       0      36       0       0       0     210    0.00     0.0     0.0    0.00    0.00   0.276   0.265   0.280   0.272   0.273   0.275   0.279   0.278   0.276   0.273   0.270   0.268   0.266   0.263   0.260
   16 318    21     563     272       0       3      36       0       0       0     210    0.00     0.0     0.0    0.00    0.00   0.255   0.255   0.266   0.267   0.270   0.273   0.278   0.277   0.276   0.273   0.270   0.268   0.266   0.263   0.262
   16 319    22     561     270       0       5      36       0       0       0     210    0.00     0.0     0.0    0.00    0.00   0.244   0.250   0.259   0.264   0.268   0.273   0.278   0.277   0.276   0.273   0.270   0.268   0.266   0.263   0.262
   16 320    23     566     274       0       5      41       0       0       0     210    0.00     0.0     0.0    0.00    0.00   0.295   0.259   0.269   0.267   0.270   0.273   0.278   0.278   0.277   0.273   0.270   0.268   0.266   0.263   0.262
   16 321    24     574     282       0       5      49       0       0       0     210    0.00     0.0     0.0    0.00    0.00   0.319   0.286   0.301   0.277   0.276   0.277   0.280   0.279   0.276   0.274   0.270   0.268   0.266   0.263   0.262
   16 322    25     566     275       0      11      49       0       0       0     210    0.00     0.0     0.0    0.00    0.00   0.275   0.265   0.276   0.269   0.271   0.273   0.278   0.279   0.276   0.274   0.270   0.268   0.266   0.263   0.262
   16 323    26     572     281       0      11      55       0       0       0     210    0.00     0.0     0.0    0.00    0.00   0.319   0.274   0.292   0.275   0.276   0.276   0.279   0.279   0.278   0.274   0.270   0.268   0.266   0.263   0.262
   16 324    27     579     287       0      11      62       0       0       0     210    0.00     0.0     0.0    0.00    0.00   0.319   0.294   0.320   0.286   0.283   0.282   0.283   0.281   0.278   0.275   0.272   0.268   0.266   0.263   0.262
   16 325    28     569     277       0      20      62       0       0       0     210    0.00     0.0     0.0    0.00    0.00   0.273   0.268   0.285   0.273   0.274   0.276   0.279   0.278   0.277   0.274   0.271   0.268   0.266   0.263   0.262
   16 326    29     564     273       0      24      62       0       0       0     210    0.00     0.0     0.0    0.00    0.00   0.252   0.256   0.268   0.267   0.270   0.273   0.277   0.278   0.277   0.274   0.271   0.268   0.266   0.263   0.262
   16 327    30     562     270       0      26      62       0       0       0     210    0.00     0.0     0.0    0.00    0.00   0.241   0.250   0.259   0.264   0.268   0.273   0.277   0.278   0.277   0.274   0.271   0.268   0.266   0.263   0.262
   16 328    31     561     269       0      26      62       0       0       0     210    0.00     0.0     0.0    0.00    0.00   0.236   0.247   0.255   0.263   0.268   0.272   0.277   0.277   0.276   0.274   0.271   0.268   0.266   0.263   0.262
   16 329    32     560     269       0      26      62       0       0       0     210    0.00     0.0     0.0    0.00    0.00   0.235   0.247   0.255   0.263   0.268   0.272   0.276   0.277   0.276   0.274   0.271   0.268   0.266   0.263   0.262
   16 330    33     560     269       0      26      62       0       0       0     210    0.00     0.0     0.0    0.00    0.00   0.233   0.246   0.254   0.263   0.267   0.272   0.276   0.277   0.276   0.274   0.271   0.268   0.266   0.263   0.262
   16 331    34     560     268       0      26      62       0       0       0     210    0.00     0.0     0.0    0.00    0.00   0.233   0.246   0.254   0.263   0.267   0.272   0.276   0.277   0.276   0.274   0.270   0.268   0.266   0.263   0.262
   16 332    35     559     268       0      26      62       0       0       0     210    0.00     0.0     0.0    0.00    0.00   0.231   0.245   0.254   0.262   0.267   0.272   0.276   0.277   0.276   0.273   0.270   0.268   0.266   0.263   0.262
   16 333    36     559     268       0      26      62       0       0       0     210    0.00     0.0     0.0    0.00    0.00   0.230   0.245   0.253   0.262   0.267   0.271   0.276   0.277   0.276   0.273   0.270   0.267   0.266   0.263   0.262
   16 334    37     559     267       0      26      62       0       0       0     210    0.00     0.0     0.0    0.00    0.00   0.229   0.244   0.253   0.262   0.267   0.271   0.276   0.276   0.276   0.273   0.270   0.267   0.265   0.262   0.262
   16 335    38     558     267       0      26      62       0       0       0     210    0.00     0.0     0.0    0.00    0.00   0.228   0.244   0.253   0.262   0.266   0.271   0.276   0.276   0.276   0.273   0.270   0.267   0.265   0.262   0.261
   16 336    39     558     267       0      26      62       0       0       0     210    0.00     0.0     0.0    0.00    0.00   0.227   0.243   0.252   0.261   0.266   0.271   0.275   0.276   0.276   0.273   0.270   0.267   0.265   0.262   0.261
   16 337    40     559     267       0      26      63       0       0       0     210    0.00     0.0     0.0    0.00    0.00   0.240   0.245   0.252   0.261   0.266   0.271   0.275   0.276   0.275   0.273   0.270   0.267   0.265   0.262   0.261
   16 338    41     558     267       0      26      63       0       0       0     210    0.00     0.0     0.0    0.00    0.00   0.237   0.246   0.252   0.261   0.266   0.271   0.275   0.276   0.275   0.273   0.270   0.267   0.265   0.262   0.261
   16 339    42     558     267       0      26      63       0       0       0     210    0.00     0.0     0.0    0.00    0.00   0.237   0.245   0.252   0.261   0.266   0.271   0.275   0.276   0.275   0.273   0.270   0.267   0.265   0.262   0.261
   16 340    43     558     267       0      26      63       0       0       0     210    0.00     0.0     0.0    0.00    0.00   0.237   0.245   0.252   0.261   0.266   0.271   0.275   0.276   0.275   0.273   0.270   0.267   0.265   0.262   0.261
   16 341    44     558     267       0      26      63       0       0       0     210    0.00     0.0     0.0    0.00    0.00   0.236   0.245   0.251   0.261   0.266   0.270   0.275   0.276   0.275   0.273   0.270   0.267   0.265   0.262   0.261
   16 342    45     558     267       0      26      63       0       0       0     210    0.00     0.0     0.0    0.00    0.00   0.235   0.245   0.251   0.261   0.265   0.270   0.275   0.276   0.275   0.273   0.270   0.267   0.265   0.262   0.261
   16 343    46     557     266       0      26      63       0       0       0     210    0.00     0.0     0.0    0.00    0.00   0.234   0.244   0.251   0.261   0.265   0.270   0.275   0.275   0.275   0.273   0.270   0.267   0.265   0.262   0.261
   16 344    47     557     265       0      26      63       0       0       0     210    0.00     0.0     0.0    0.00    0.00   0.223   0.244   0.251   0.260   0.265   0.270   0.275   0.275   0.275   0.273   0.270   0.267   0.265   0.262   0.261
   16 345    48     556     265       0      26      63       0       0       0     210    0.00     0.0     0.0    0.00    0.00   0.210   0.243   0.250   0.260   0.265   0.270   0.275   0.275   0.275   0.273   0.270   0.267   0.265   0.262   0.261
   16 346    49     557     265       0      26      64       0       0       0     210    0.00     0.0     0.0    0.00    0.00   0.225   0.242   0.250   0.260   0.265   0.270   0.275   0.275   0.275   0.273   0.270   0.267   0.265   0.262   0.261
   16 347    50     556     265       0      26      64       0       0       0     210    0.00     0.0     0.0    0.00    0.00   0.221   0.242   0.250   0.260   0.265   0.270   0.275   0.275   0.275   0.273   0.270   0.267   0.265   0.262   0.261
   16 348    51     556     265       0      26      64       0       0       0     210    0.00     0.0     0.0    0.00    0.00   0.211   0.242   0.250   0.260   0.265   0.270   0.275   0.275   0.275   0.273   0.270   0.267   0.265   0.262   0.261
   16 349    52     555     264       0      26      64       0       0       0     210    0.00     0.0     0.0    0.00    0.00   0.203   0.241   0.250   0.260   0.265   0.270   0.275   0.275   0.275   0.273   0.270   0.267   0.265   0.262   0.261
   16 350    53     555     264       0      26      64       0       0       0     210    0.00     0.0     0.0    0.00    0.00   0.201   0.241   0.250   0.260   0.265   0.270   0.275   0.275   0.275   0.273   0.270   0.267   0.265   0.262   0.261
   16 351    54     555     264       0      26      64       0       0       0     210    0.00     0.0     0.0    0.00    0.00   0.200   0.241   0.250   0.260   0.265   0.270   0.275   0.275   0.275   0.273   0.270   0.267   0.265   0.262   0.261
   16 352    55     555     264       0      26      64       0       0       0     210    0.00     0.0     0.0    0.00    0.00   0.199   0.241   0.250   0.260   0.265   0.270   0.275   0.275   0.275   0.273   0.270   0.267   0.265   0.262   0.261
   16 353    56     555     264       0      26      64       0       0       0     210    0.00     0.0     0.0    0.00    0.00   0.198   0.241   0.250   0.260   0.265   0.270   0.274   0.275   0.275   0.273   0.270   0.267   0.265   0.262   0.261
   16 354    57     555     264       0      26      64       0       0       0     210    0.00     0.0     0.0    0.00    0.00   0.196   0.240   0.250   0.260   0.265   0.270   0.274   0.275   0.275   0.273   0.270   0.267   0.265   0.262   0.261
   16 355    58     555     264       0      26      64       0       0       0     210    0.00     0.0     0.0    0.00    0.00   0.195   0.240   0.250   0.260   0.265   0.270   0.274   0.275   0.275   0.273   0.270   0.267   0.265   0.262   0.261
   16 356    59     555     263       0      26      64       0       0       0     210    0.00     0.0     0.0    0.00    0.00   0.194   0.240   0.250   0.260   0.265   0.270   0.274   0.275   0.275   0.272   0.270   0.267   0.265   0.262   0.261
   16 357    60     555     263       0      26      64       0       0       0     210    0.00     0.0     0.0    0.00    0.00   0.192   0.240   0.249   0.260   0.265   0.270   0.274   0.275   0.275   0.272   0.270   0.267   0.265   0.262   0.261
   16 358    61     555     263       0      26      64       0       0       0     210    0.00     0.0     0.0    0.00    0.00   0.190   0.240   0.249   0.260   0.265   0.270   0.274   0.275   0.275   0.272   0.270   0.267   0.265   0.262   0.261
   16 359    62     554     263       0      26      64       0       0       0     210    0.00     0.0     0.0    0.00    0.00   0.185   0.239   0.249   0.260   0.265   0.270   0.274   0.275   0.275   0.272   0.270   0.267   0.265   0.262   0.261
   16 360    63     554     263       0      26      64       0       0       0     210    0.00     0.0     0.0    0.00    0.00   0.179   0.239   0.249   0.260   0.265   0.270   0.274   0.275   0.275   0.272   0.270   0.267   0.265   0.262   0.261
   16 361    64     555     263       0      26      65       0       0       0     210    0.00     0.0     0.0    0.00    0.00   0.194   0.239   0.249   0.260   0.265   0.270   0.274   0.275   0.275   0.272   0.270   0.267   0.265   0.262   0.261
   16 362    65     554     263       0      26      65       0       0       0     210    0.00     0.0     0.0    0.00    0.00   0.189   0.238   0.249   0.259   0.265   0.270   0.274   0.275   0.275   0.272   0.270   0.267   0.265   0.262   0.261
   16 363    66     554     263       0      26      65       0       0       0     210    0.00     0.0     0.0    0.00    0.00   0.186   0.238   0.249   0.259   0.265   0.270   0.274   0.275   0.275   0.272   0.270   0.267   0.265   0.262   0.261
   16 364    67     554     262       0      26      65       0       0       0     210    0.00     0.0     0.0    0.00    0.00   0.180   0.237   0.249   0.259   0.265   0.270   0.274   0.275   0.275   0.272   0.270   0.267   0.265   0.262   0.261
   16 365    68     553     262       0      26      65       0       0       0     210    0.00     0.0     0.0    0.00    0.00   0.177   0.237   0.248   0.259   0.265   0.270   0.274   0.275   0.275   0.272   0.270   0.267   0.265   0.262   0.261
   16 366    69     553     262       0      26      65       0       0       0     210    0.00     0.0     0.0    0.00    0.00   0.176   0.237   0.248   0.259   0.265   0.270   0.274   0.275   0.275   0.272   0.270   0.267   0.265   0.262   0.261
   17 001    70     553     262       0      26      65       0       0       0     210    0.00     0.0     0.0    0.00    0.00   0.174   0.237   0.248   0.259   0.265   0.270   0.274   0.275   0.275   0.272   0.270   0.267   0.265   0.262   0.261
   17 002    71     553     262       0      26      66       0       0       0     210    0.00     0.0     0.0    0.00    0.00   0.173   0.237   0.248   0.259   0.265   0.270   0.274   0.275   0.275   0.272   0.270   0.267   0.265   0.262   0.261
   17 003    72     553     262       0      26      66       0       0       0     210    0.00     0.0     0.0    0.00    0.00   0.172   0.237   0.248   0.259   0.265   0.270   0.274   0.275   0.275   0.272   0.270   0.267   0.265   0.262   0.261
   17 004    73     553     262       0      26      66       0       0       0     210    0.00     0.0     0.0    0.00    0.00   0.171   0.237   0.248   0.259   0.265   0.270   0.274   0.275   0.275   0.272   0.270   0.267   0.265   0.262   0.261
   17 005    74     553     262       0      26      66       0       0       0     210    0.00     0.0     0.0    0.00    0.00   0.170   0.237   0.248   0.259   0.265   0.270   0.274   0.275   0.275   0.272   0.270   0.267   0.265   0.262   0.261
   17 006    75     553     262       0      26      72       0       0       0     210    0.00     0.0     0.0    0.00    0.00   0.169   0.236   0.248   0.259   0.265   0.270   0.274   0.275   0.275   0.272   0.270   0.267   0.265   0.262   0.261
   17 007    76     553     262       0      26      81       0       0       0     210    0.00     0.0     0.0    0.00    0.00   0.168   0.236   0.248   0.259   0.265   0.270   0.274   0.275   0.275   0.272   0.270   0.267   0.265   0.262   0.261
   17 008    77     553     262       0      26      81       0       0       0     210    0.00     0.0     0.0    0.00    0.00   0.167   0.236   0.248   0.259   0.265   0.270   0.274   0.275   0.275   0.272   0.270   0.267   0.265   0.262   0.261
   17 009    78     553     261       0      26      81       0       0       0     210    0.00     0.0     0.0    0.00    0.00   0.166   0.236   0.248   0.259   0.264   0.270   0.274   0.275   0.275   0.272   0.270   0.267   0.265   0.262   0.261
   17 010    79     553     261       0      26      81       0       0       0     210    0.00     0.0     0.0    0.00    0.00   0.165   0.236   0.248   0.259   0.264   0.270   0.274   0.275   0.275   0.272   0.270   0.267   0.265   0.262   0.261
   17 011    80     554     262       0      26      82       0       0       0     210    0.00     0.0     0.0    0.00    0.00   0.184   0.236   0.248   0.259   0.264   0.270   0.274   0.275   0.275   0.272   0.270   0.267   0.265   0.262   0.261
   17 012    81     563     272       0      26      92       0       0       0     210    0.00     0.0     0.0    0.00    0.00   0.318   0.258   0.262   0.264   0.264   0.270   0.274   0.275   0.275   0.272   0.269   0.267   0.265   0.262   0.261
   17 013    82     562     271       0      28      92       0       0       0     210    0.00     0.0     0.0    0.00    0.00   0.276   0.251   0.257   0.264   0.267   0.271   0.276   0.276   0.275   0.273   0.270   0.268   0.266   0.263   0.262
   17 014    83     561     270       0      29      92       0       0       0     210    0.00     0.0     0.0    0.00    0.00   0.256   0.249   0.254   0.264   0.267   0.271   0.276   0.276   0.275   0.273   0.270   0.268   0.266   0.263   0.262
   17 015    84     560     269       0      29      92       0       0       0     210    0.00     0.0     0.0    0.00    0.00   0.245   0.248   0.254   0.264   0.267   0.271   0.276   0.276   0.275   0.273   0.270   0.268   0.266   0.263   0.262
   17 016    85     560     269       0      29      92       0       0       0     210    0.00     0.0     0.0    0.00    0.00   0.240   0.248   0.254   0.263   0.267   0.271   0.276   0.276   0.275   0.273   0.270   0.268   0.266   0.263   0.262
   17 017    86     560     269       0      29      92       0       0       0     210    0.00     0.0     0.0    0.00    0.00   0.238   0.248   0.254   0.263   0.267   0.271   0.276   0.276   0.275   0.273   0.270   0.268   0.266   0.263   0.262
   17 018    87     560     268       0      29      92       0       0       0     210    0.00     0.0     0.0    0.00    0.00   0.238   0.248   0.254   0.263   0.267   0.271   0.276   0.276   0.275   0.273   0.270   0.268   0.266   0.263   0.262
   17 019    88     560     268       0      29      92       0       0       0     210    0.00     0.0     0.0    0.00    0.00   0.237   0.248   0.254   0.263   0.267   0.271   0.276   0.276   0.275   0.273   0.270   0.268   0.266   0.263   0.262
   17 020    89     560     268       0      29      97       0       0       0     210    0.00     0.0     0.0    0.00    0.00   0.236   0.248   0.254   0.263   0.267   0.271   0.276   0.276   0.275   0.273   0.270   0.268   0.266   0.263   0.262
   17 021    90     559     268       0      29     100       0       0       0     210    0.00     0.0     0.0    0.00    0.00   0.236   0.248   0.254   0.263   0.267   0.271   0.276   0.276   0.275   0.273   0.270   0.268   0.266   0.263   0.262
   17 022    91     559     268       0      29     105       0       0       0     210    0.00     0.0     0.0    0.00    0.00   0.235   0.247   0.253   0.263   0.267   0.271   0.276   0.276   0.275   0.273   0.270   0.268   0.266   0.263   0.262
   17 023    92     559     268       0      29     106       0       0       0     210    0.00     0.0     0.0    0.00    0.00   0.235   0.247   0.253   0.263   0.267   0.271   0.276   0.276   0.275   0.273   0.270   0.268   0.266   0.263   0.262
   17 024    93     559     268       0      29     107       0       0       0     210    0.00     0.0     0.0    0.00    0.00   0.235   0.247   0.253   0.263   0.267   0.271   0.276   0.276   0.275   0.273   0.270   0.268   0.266   0.263   0.262
   17 025    94     559     268       0      29     108       0       0       0     210    0.00     0.0     0.0    0.00    0.00   0.235   0.247   0.253   0.263   0.267   0.271   0.276   0.276   0.275   0.273   0.270   0.268   0.266   0.263   0.262
   17 026    95     559     268       0      29     108       0       0       0     210    0.00     0.0     0.0    0.00    0.00   0.234   0.247   0.253   0.263   0.266   0.271   0.276   0.276   0.275   0.273   0.270   0.268   0.266   0.263   0.262
   17 027    96     559     267       0      29     116       0       0       0     210    0.00     0.0     0.0    0.00    0.00   0.233   0.247   0.253   0.263   0.266   0.270   0.275   0.276   0.275   0.273   0.270   0.268   0.266   0.263   0.262
   17 028    97     559     267       0      29     117       0       0       0     210    0.00     0.0     0.0    0.00    0.00   0.232   0.246   0.253   0.262   0.266   0.270   0.275   0.275   0.275   0.273   0.270   0.268   0.266   0.263   0.262
   17 029    98     558     267       0      29     121       0       0       0     210    0.00     0.0     0.0    0.00    0.00   0.231   0.246   0.252   0.262   0.266   0.270   0.275   0.275   0.274   0.272   0.270   0.268   0.266   0.263   0.262
   17 030    99     558     267       0      29     122       0       0       0     210    0.00     0.0     0.0    0.00    0.00   0.230   0.246   0.252   0.262   0.266   0.270   0.275   0.275   0.274   0.272   0.269   0.268   0.266   0.263   0.262
   17 031   100     563     271       0      29     127       0       0       0     210    0.00     0.0     0.0    0.00    0.00   0.286   0.256   0.262   0.264   0.268   0.270   0.275   0.275   0.274   0.272   0.269   0.267   0.265   0.263   0.262
   17 032   101     562     270       0      30     127       0       0       0     210    0.00     0.0     0.0    0.00    0.00   0.260   0.251   0.257   0.264   0.268   0.271   0.276   0.276   0.275   0.273   0.270   0.268   0.266   0.263   0.262
   17 033   102     560     269       0      31     127       0       0       0     210    0.00     0.0     0.0    0.00    0.00   0.246   0.248   0.254   0.264   0.268   0.271   0.276   0.276   0.275   0.273   0.270   0.268   0.266   0.263   0.262
   17 034   103     560     268       0      31     127       0       0       0     210    0.00     0.0     0.0    0.00    0.00   0.240   0.247   0.254   0.263   0.267   0.271   0.276   0.276   0.275   0.273   0.270   0.268   0.266   0.263   0.262
   17 035   104     559     268       0      31     127       0       0       0     210    0.00     0.0     0.0    0.00    0.00   0.234   0.246   0.253   0.263   0.267   0.271   0.276   0.276   0.275   0.273   0.270   0.268   0.266   0.263   0.262
   17 036   105     558     266       0      31     127       0       0       0     210    0.00     0.0     0.0    0.00    0.00   0.230   0.244   0.252   0.262   0.266   0.270   0.275   0.275   0.274   0.272   0.269   0.267   0.265   0.263   0.262
   17 037   106     558     266       0      31     127       0       0       0     210    0.00     0.0     0.0    0.00    0.00   0.226   0.244   0.251   0.262   0.266   0.270   0.275   0.275   0.274   0.272   0.269   0.267   0.265   0.263   0.262
   17 038   107     557     265       0      31     127       0       0       0     210    0.00     0.0     0.0    0.00    0.00   0.213   0.243   0.251   0.262   0.266   0.270   0.275   0.275   0.274   0.272   0.269   0.267   0.265   0.263   0.262
   17 039   108     556     265       0      31     127       0       0       0     210    0.00     0.0     0.0    0.00    0.00   0.209   0.243   0.251   0.262   0.266   0.270   0.275   0.275   0.274   0.272   0.269   0.267   0.265   0.263   0.262
   17 040   109     556     265       0      31     127       0       0       0     210    0.00     0.0     0.0    0.00    0.00   0.206   0.242   0.251   0.261   0.266   0.270   0.275   0.275   0.274   0.272   0.269   0.267   0.265   0.263   0.262
   17 041   110     556     265       0      31     127       0       0       0     210    0.00     0.0     0.0    0.00    0.00   0.204   0.242   0.251   0.261   0.266   0.270   0.275   0.275   0.274   0.272   0.269   0.267   0.265   0.263   0.262
   17 042   111     555     264       0      31     127       0       0       0     210    0.00     0.0     0.0    0.00    0.00   0.190   0.241   0.251   0.261   0.266   0.270   0.275   0.275   0.274   0.272   0.269   0.267   0.265   0.263   0.262
   17 043   112     555     264       0      31     127       0       0       0     210    0.00     0.0     0.0    0.00    0.00   0.187   0.241   0.251   0.261   0.266   0.270   0.275   0.275   0.274   0.272   0.269   0.267   0.265   0.263   0.262
   17 044   113     555     263       0      31     127       0       0       0     210    0.00     0.0     0.0    0.00    0.00   0.181   0.240   0.250   0.261   0.266   0.270   0.275   0.275   0.274   0.272   0.269   0.267   0.265   0.263   0.262
   17 045   114     554     262       0      31     127       0       0       0     210    0.00     0.0     0.0    0.00    0.00   0.167   0.239   0.250   0.261   0.266   0.270   0.275   0.275   0.274   0.272   0.269   0.267   0.265   0.263   0.262
   17 046   115     553     262       0      31     127       0       0       0     210    0.00     0.0     0.0    0.00    0.00   0.155   0.238   0.250   0.261   0.266   0.270   0.275   0.275   0.274   0.272   0.269   0.267   0.265   0.263   0.262
   17 047   116     554     263       0      31     129       0       0       0     210    0.00     0.0     0.0    0.00    0.00   0.182   0.237   0.249   0.261   0.265   0.269   0.275   0.275   0.274   0.272   0.269   0.267   0.265   0.263   0.262
   17 048   117     558     266       0      31     133       0       0       0     210    0.00     0.0     0.0    0.00    0.00   0.241   0.242   0.249   0.260   0.265   0.269   0.275   0.275   0.274   0.272   0.269   0.267   0.265   0.263   0.262
   17 049   118     557     266       0      31     133       0       0       0     210    0.00     0.0     0.0    0.00    0.00   0.236   0.243   0.248   0.260   0.265   0.269   0.274   0.275   0.274   0.272   0.269   0.267   0.265   0.262   0.261
   17 050   119     556     265       0      31     133       0       0       0     210    0.00     0.0     0.0    0.00    0.00   0.219   0.241   0.248   0.260   0.265   0.269   0.274   0.275   0.274   0.272   0.269   0.267   0.265   0.262   0.261
   17 051   120     557     265       0      31     135       0       0       0     210    0.00     0.0     0.0    0.00    0.00   0.230   0.245   0.247   0.259   0.265   0.269   0.274   0.275   0.274   0.272   0.269   0.267   0.265   0.262   0.261
   17 052   121     561     270       0      31     140       0       0       0     210    0.00     0.0     0.0    0.00    0.00   0.285   0.256   0.260   0.263   0.264   0.269   0.274   0.274   0.274   0.272   0.269   0.267   0.265   0.262   0.261
   17 053   122     561     269       0      31     140       0       0       0     210    0.00     0.0     0.0    0.00    0.00   0.258   0.250   0.255   0.262   0.267   0.271   0.276   0.276   0.275   0.273   0.270   0.268   0.266   0.262   0.261
   17 054   123     559     267       0      31     140       0       0       0     210    0.00     0.0     0.0    0.00    0.00   0.241   0.246   0.252   0.261   0.266   0.270   0.275   0.275   0.274   0.273   0.270   0.268   0.266   0.263   0.262
   17 055   124     558     266       0      31     140       0       0       0     210    0.00     0.0     0.0    0.00    0.00   0.233   0.245   0.251   0.261   0.266   0.270   0.275   0.275   0.274   0.272   0.269   0.267   0.265   0.263   0.262
   17 056   125     557     265       0      31     140       0       0       0     210    0.00     0.0     0.0    0.00    0.00   0.214   0.243   0.251   0.261   0.266   0.270   0.275   0.275   0.274   0.272   0.269   0.267   0.265   0.263   0.262
   17 057   126     556     264       0      31     140       0       0       0     210    0.00     0.0     0.0    0.00    0.00   0.196   0.242   0.250   0.261   0.265   0.270   0.275   0.275   0.274   0.272   0.269   0.267   0.265   0.263   0.262
   17 058   127     555     263       0      31     140       0       0       0     210    0.00     0.0     0.0    0.00    0.00   0.180   0.241   0.250   0.261   0.265   0.269   0.275   0.275   0.274   0.272   0.269   0.267   0.265   0.263   0.262
   17 059   128     566     275       0      31     152       0       0       0     210    0.00     0.0     0.0    0.00    0.00   0.317   0.267   0.273   0.266   0.270   0.269   0.275   0.275   0.274   0.272   0.269   0.267   0.265   0.262   0.261
   17 060   129     570     278       0      31     157       0       0       0     210    0.00     0.0     0.0    0.00    0.00   0.316   0.279   0.296   0.275   0.274   0.274   0.277   0.274   0.274   0.272   0.269   0.267   0.265   0.262   0.261
   17 061   130     564     272       0      35     157       0       0       0     210    0.00     0.0     0.0    0.00    0.00   0.268   0.260   0.272   0.267   0.269   0.273   0.276   0.275   0.274   0.272   0.270   0.268   0.266   0.263   0.262
   17 062   131     561     269       0      37     157       0       0       0     210    0.00     0.0     0.0    0.00    0.00   0.245   0.251   0.261   0.263   0.269   0.272   0.276   0.275   0.275   0.273   0.270   0.268   0.266   0.263   0.262
   17 063   132     559     268       0      37     157       0       0       0     210    0.00     0.0     0.0    0.00    0.00   0.233   0.246   0.255   0.262   0.268   0.271   0.275   0.275   0.274   0.273   0.270   0.268   0.266   0.263   0.262
   17 064   133     560     268       0      37     159       0       0       0     210    0.00     0.0     0.0    0.00    0.00   0.247   0.248   0.256   0.262   0.268   0.270   0.275   0.275   0.274   0.272   0.269   0.267   0.265   0.262   0.262
   17 065   134     560     268       0      37     160       0       0       0     210    0.00     0.0     0.0    0.00    0.00   0.248   0.249   0.258   0.263   0.268   0.272   0.274   0.275   0.274   0.272   0.269   0.267   0.265   0.262   0.261
   17 066   135     559     267       0      37     160       0       0       0     210    0.00     0.0     0.0    0.00    0.00   0.238   0.246   0.254   0.262   0.267   0.271   0.276   0.276   0.275   0.272   0.269   0.267   0.265   0.262   0.261
   17 067   136     565     273       0      37     167       0       0       0     210    0.00     0.0     0.0    0.00    0.00   0.310   0.261   0.268   0.266   0.269   0.273   0.275   0.275   0.274   0.272   0.269   0.267   0.265   0.262   0.261
   17 068   137     577     285       0      37     180       0       0       0     210    0.00     0.0     0.0    0.26    0.00   0.318   0.313   0.323   0.284   0.279   0.278   0.279   0.278   0.274   0.271   0.269   0.267   0.265   0.262   0.261
   17 069   138     568     277       0      45     180       0       0       0     210    0.00     0.0     0.0    0.00    0.00   0.271   0.278   0.286   0.272   0.272   0.274   0.278   0.278   0.275   0.273   0.270   0.268   0.266   0.263   0.262
   17 070   139     563     271       0      48     180       0       0       0     210    0.00     0.0     0.0    0.00    0.00   0.245   0.259   0.267   0.266   0.268   0.273   0.278   0.277   0.274   0.273   0.270   0.268   0.266   0.263   0.262
   17 071   140     559     268       0      49     180       0       0       0     210    0.00     0.0     0.0    0.00    0.00   0.231   0.249   0.257   0.262   0.267   0.272   0.277   0.276   0.274   0.272   0.269   0.268   0.266   0.263   0.262
   17 072   141     557     266       0      49     180       0       0       0     210    0.00     0.0     0.0    0.00    0.00   0.221   0.244   0.253   0.260   0.266   0.271   0.276   0.276   0.274   0.272   0.269   0.267   0.265   0.262   0.261
   17 073   142     556     264       0      49     180       0       0       0     210    0.00     0.0     0.0    0.00    0.00   0.213   0.242   0.251   0.259   0.265   0.270   0.275   0.275   0.274   0.272   0.269   0.267   0.265   0.262   0.261
   17 074   143     554     263       0      49     180       0       0       0     210    0.00     0.0     0.0    0.00    0.00   0.193   0.240   0.250   0.259   0.264   0.270   0.275   0.275   0.274   0.272   0.269   0.267   0.265   0.262   0.261
   17 075   144     553     262       0      49     180       0       0       0     210    0.00     0.0     0.0    0.00    0.00   0.176   0.238   0.249   0.258   0.264   0.269   0.275   0.275   0.274   0.272   0.269   0.267   0.265   0.262   0.261
   17 076   145     552     261       0      49     181       0       0       0     210    0.00     0.0     0.0    0.00    0.00   0.176   0.234   0.247   0.257   0.263   0.269   0.275   0.275   0.274   0.272   0.269   0.267   0.265   0.262   0.261
   17 077   146     555     263       0      49     185       0       0       0     210    0.00     0.0     0.0    0.00    0.00   0.231   0.235   0.244   0.256   0.262   0.268   0.275   0.275   0.274   0.272   0.269   0.267   0.265   0.262   0.261
   17 078   147     554     262       0      49     185       0       0       0     210    0.00     0.0     0.0    0.00    0.00   0.220   0.234   0.244   0.255   0.262   0.268   0.275   0.275   0.274   0.272   0.269   0.267   0.265   0.262   0.261
   17 079   148     553     261       0      49     185       0       0       0     210    0.00     0.0     0.0    0.00    0.00   0.202   0.232   0.243   0.255   0.262   0.268   0.275   0.275   0.274   0.272   0.269   0.267   0.265   0.262   0.261
   17 080   149     552     261       0      49     186       0       0       0     210    0.00     0.0     0.0    0.00    0.00   0.205   0.230   0.242   0.254   0.261   0.267   0.274   0.275   0.274   0.272   0.269   0.267   0.265   0.262   0.261
   17 081   150     553     261       0      49     187       0       0       0     210    0.00     0.0     0.0    0.00    0.00   0.217   0.229   0.241   0.254   0.261   0.267   0.274   0.275   0.274   0.272   0.269   0.267   0.265   0.262   0.261
   17 082   151     552     260       0      49     187       0       0       0     210    0.00     0.0     0.0    0.00    0.00   0.204   0.228   0.241   0.254   0.261   0.267   0.274   0.275   0.274   0.272   0.269   0.267   0.265   0.262   0.261
   17 083   152     551     260       0      49     187       0       0       0     210    0.00     0.0     0.0    0.00    0.00   0.195   0.226   0.239   0.253   0.260   0.267   0.274   0.275   0.274   0.272   0.269   0.267   0.265   0.262   0.261
   17 084   153     550     258       0      49     187       0       0       0     210    0.00     0.0     0.0    0.00    0.00   0.179   0.225   0.239   0.252   0.260   0.266   0.274   0.275   0.274   0.272   0.269   0.267   0.265   0.262   0.261
   17 085   154     548     257       0      49     187       0       0       0     210    0.00     0.0     0.0    0.00    0.00   0.161   0.222   0.237   0.251   0.259   0.266   0.273   0.275   0.274   0.272   0.269   0.267   0.265   0.262   0.261
   17 086   155     547     255       0      49     187       0       0       0     210    0.00     0.0     0.0    0.00    0.00   0.145   0.219   0.235   0.250   0.258   0.265   0.272   0.274   0.274   0.272   0.269   0.267   0.265   0.262   0.261
   17 087   156     544     253       0      49     187       0       0       0     210    0.00     0.0     0.0    0.00    0.00   0.129   0.214   0.231   0.247   0.256   0.263   0.271   0.274   0.274   0.272   0.269   0.267   0.265   0.262   0.261
   17 088   157     541     250       0      49     187       0       0       0     210    0.00     0.0     0.0    0.00    0.00   0.115   0.207   0.225   0.243   0.253   0.260   0.268   0.273   0.274   0.272   0.269   0.267   0.265   0.262   0.261
   17 089   158     539     247       0      49     187       0       0       0     210    0.00     0.0     0.0    0.00    0.00   0.106   0.201   0.220   0.240   0.250   0.258   0.266   0.272   0.274   0.272   0.269   0.267   0.265   0.262   0.261
   17 090   159     536     244       0      49     187       0       0       0     210    0.00     0.0     0.0    0.00    0.00   0.100   0.193   0.213   0.235   0.247   0.255   0.263   0.272   0.273   0.272   0.269   0.267   0.265   0.262   0.261
   17 091   160     532     240       0      49     187       0       0       0     210    0.00     0.0     0.0    0.00    0.00   0.094   0.182   0.204   0.228   0.241   0.250   0.258   0.272   0.273   0.272   0.269   0.267   0.265   0.262   0.261
   17 092   161     528     237       0      49     187       0       0       0     210    0.00     0.0     0.0    0.00    0.00   0.088   0.174   0.197   0.223   0.237   0.246   0.254   0.269   0.273   0.272   0.269   0.267   0.265   0.262   0.261
   17 093   162     529     238       0      49     190       0       0       0     210    0.00     0.0     0.0    0.00    0.00   0.141   0.170   0.192   0.220   0.234   0.244   0.252   0.267   0.273   0.272   0.269   0.267   0.265   0.262   0.261
   17 094   163     528     236       0      49     190       0       0       0     210    0.00     0.0     0.0    0.00    0.00   0.133   0.168   0.190   0.218   0.233   0.242   0.251   0.266   0.273   0.272   0.269   0.267   0.265   0.262   0.261
   17 095   164     526     235       0      49     190       0       0       0     210    0.00     0.0     0.0    0.00    0.00   0.124   0.166   0.188   0.217   0.232   0.241   0.250   0.266   0.273   0.272   0.269   0.267   0.265   0.262   0.261
   17 096   165     525     234       0      49     190       0       0       0     210    0.00     0.0     0.0    0.00    0.00   0.118   0.164   0.187   0.215   0.231   0.240   0.249   0.265   0.273   0.272   0.269   0.267   0.265   0.262   0.261
   17 097   166     524     233       0      49     190       0       0       0     210    0.00     0.0     0.0    0.00    0.00   0.110   0.163   0.186   0.215   0.230   0.240   0.249   0.264   0.273   0.272   0.269   0.267   0.265   0.262   0.261
   17 098   167     523     231       0      49     190       0       0       0     210    0.00     0.0     0.0    0.00    0.00   0.103   0.161   0.183   0.212   0.228   0.238   0.248   0.263   0.273   0.272   0.269   0.267   0.265   0.262   0.261
   17 099   168     521     229       0      49     190       0       0       0     210    0.00     0.0     0.0    0.00    0.00   0.096   0.158   0.179   0.209   0.226   0.236   0.245   0.261   0.273   0.272   0.269   0.267   0.265   0.262   0.261
   17 100   169     518     226       0      49     190       0       0       0     210    0.00     0.0     0.0    0.00    0.00   0.091   0.154   0.172   0.204   0.221   0.232   0.241   0.258   0.273   0.272   0.269   0.267   0.265   0.262   0.261
   17 101   170     514     223       0      49     190       0       0       0     210    0.00     0.0     0.0    0.00    0.00   0.086   0.150   0.164   0.198   0.216   0.227   0.237   0.254   0.273   0.272   0.269   0.267   0.265   0.262   0.261
   17 102   171     513     221       0      49     190       0       0       0     210    0.00     0.0     0.0    0.00    0.00   0.081   0.148   0.162   0.196   0.214   0.226   0.236   0.253   0.273   0.272   0.269   0.267   0.265   0.262   0.261
   17 103   172     511     219       0      49     190       0       0       0     210    0.00     0.0     0.0    0.00    0.00   0.076   0.146   0.157   0.192   0.211   0.223   0.233   0.250   0.273   0.272   0.269   0.267   0.265   0.262   0.261
   17 104   173     510     218       0      49     190       0       0       0     210    0.00     0.0     0.0    0.00    0.00   0.073   0.145   0.155   0.191   0.210   0.222   0.232   0.249   0.273   0.272   0.269   0.267   0.265   0.262   0.261
   17 105   174     509     217       0      49     190       0       0       0     210    0.00     0.0     0.0    0.00    0.00   0.069   0.143   0.154   0.189   0.209   0.221   0.231   0.249   0.273   0.272   0.269   0.267   0.265   0.262   0.261
   17 106   175     509     217       0      49     191       0       0       0     210    0.00     0.0     0.0    0.00    0.00   0.086   0.142   0.152   0.188   0.207   0.220   0.230   0.248   0.273   0.272   0.269   0.267   0.265   0.262   0.261
   17 107   176     517     225       0      49     199       0       0       0     210    0.00     0.0     0.0    0.00    0.00   0.239   0.144   0.152   0.188   0.207   0.219   0.230   0.247   0.273   0.272   0.269   0.267   0.265   0.262   0.261
   17 108   177     521     230       0      49     204       0       0       0     210    0.00     0.0     0.0    0.00    0.00   0.291   0.167   0.152   0.187   0.206   0.219   0.230   0.247   0.273   0.272   0.269   0.266   0.265   0.262   0.261
   17 109   178     521     229       0      49     204       0       0       0     210    0.00     0.0     0.0    0.00    0.00   0.262   0.181   0.151   0.187   0.206   0.219   0.229   0.247   0.273   0.271   0.268   0.266   0.265   0.262   0.261
   17 110   179     520     229       0      49     204       0       0       0     210    0.00     0.0     0.0    0.00    0.00   0.247   0.187   0.151   0.187   0.206   0.218   0.229   0.247   0.273   0.271   0.268   0.266   0.265   0.262   0.261
   17 111   180     520     228       0      49     204       0       0       0     210    0.00     0.0     0.0    0.00    0.00   0.239   0.189   0.150   0.186   0.205   0.218   0.229   0.246   0.272   0.271   0.268   0.266   0.264   0.262   0.261
   17 112   181     522     230       0      49     207       0       0       0     210    0.00     0.0     0.0    0.00    0.00   0.268   0.202   0.149   0.185   0.204   0.217   0.228   0.245   0.272   0.271   0.268   0.266   0.264   0.262   0.261
   17 113   182     521     230       0      49     207       0       0       0     210    0.00     0.0     0.0    0.00    0.00   0.249   0.208   0.149   0.184   0.203   0.216   0.227   0.245   0.272   0.271   0.268   0.266   0.264   0.261   0.261
   17 114   183     520     229       0      49     207       0       0       0     210    0.00     0.0     0.0    0.00    0.00   0.239   0.210   0.148   0.184   0.203   0.215   0.227   0.244   0.271   0.271   0.268   0.266   0.264   0.261   0.261
   17 115   184     537     245       1      49     226       0       0       0     210    0.00     0.0     0.0    0.44    0.00   0.316   0.297   0.253   0.183   0.200   0.213   0.225   0.242   0.271   0.271   0.268   0.266   0.264   0.261   0.260
   17 116   185     547     256       1      49     237       0       0       0     210    0.00     0.0     0.0    0.22    0.00   0.320   0.320   0.323   0.228   0.200   0.213   0.224   0.242   0.270   0.271   0.268   0.266   0.264   0.261   0.260
   17 117   186     563     272       3      49     255       0       0       0     210    0.00     0.0     0.0    1.60    0.00   0.321   0.320   0.324   0.326   0.264   0.213   0.224   0.242   0.270   0.271   0.268   0.266   0.264   0.261   0.260
   17 118   187     571     280       3      49     263       0       0       0     210    0.00     0.0     0.0    0.07    0.00   0.321   0.320   0.324   0.330   0.303   0.248   0.224   0.242   0.270   0.271   0.268   0.266   0.264   0.261   0.260
   17 119   188     571     279       3      49     263       0       0       0     210    0.00     0.0     0.0    0.00    0.00   0.277   0.282   0.287   0.296   0.284   0.271   0.276   0.276   0.275   0.273   0.270   0.266   0.264   0.261   0.260
   17 120   189     565     273       3      54     263       0       0       0     210    0.00     0.0     0.0    0.00    0.00   0.252   0.262   0.268   0.277   0.274   0.270   0.275   0.275   0.275   0.273   0.270   0.268   0.266   0.263   0.262
   17 121   190     581     290       3      54     282       0       0       0     210    0.00     0.0     0.0    0.82    0.00   0.317   0.318   0.321   0.298   0.288   0.280   0.280   0.277   0.275   0.273   0.270   0.268   0.266   0.263   0.262
   17 122   191     569     278       3      64     282       0       0       0     210    0.00     0.0     0.0    0.00    0.00   0.274   0.280   0.285   0.279   0.276   0.275   0.277   0.276   0.275   0.273   0.270   0.268   0.266   0.263   0.262
   17 123   192     564     272       3      69     282       0       0       0     210    0.00     0.0     0.0    0.00    0.00   0.252   0.261   0.267   0.269   0.271   0.272   0.276   0.275   0.275   0.273   0.270   0.268   0.266   0.263   0.262
   17 124   193     561     269       3      71     282       0       0       0     210    0.00     0.0     0.0    0.00    0.00   0.241   0.252   0.258   0.264   0.268   0.271   0.275   0.275   0.275   0.273   0.270   0.268   0.266   0.263   0.262
   17 125   194     559     268       3      71     282       0       0       0     210    0.00     0.0     0.0    0.00    0.00   0.236   0.247   0.253   0.263   0.267   0.270   0.275   0.275   0.275   0.273   0.270   0.268   0.266   0.263   0.262
   17 126   195     558     267       3      71     282       0       0       0     210    0.00     0.0     0.0    0.00    0.00   0.232   0.245   0.251   0.262   0.265   0.269   0.274   0.274   0.274   0.273   0.270   0.268   0.266   0.263   0.262
   17 127   196     565     274       3      71     291       0       0       0     210    0.00     0.0     0.0    0.00    0.00   0.316   0.265   0.271   0.265   0.267   0.269   0.272   0.273   0.273   0.273   0.270   0.268   0.266   0.263   0.262
   17 128   197     575     283       3      71     301       0       0       0     210    0.00     0.0     0.0    0.06    0.00   0.320   0.303   0.319   0.280   0.276   0.274   0.275   0.272   0.273   0.273   0.270   0.268   0.266   0.263   0.262
   17 129   198     567     276       3      78     301       0       0       0     210    0.00     0.0     0.0    0.00    0.00   0.277   0.274   0.285   0.270   0.271   0.272   0.276   0.276   0.275   0.273   0.270   0.268   0.266   0.263   0.262
   17 130   199     563     271       3      82     301       0       0       0     210    0.00     0.0     0.0    0.00    0.00   0.253   0.259   0.267   0.265   0.268   0.272   0.275   0.275   0.275   0.273   0.270   0.268   0.266   0.263   0.262
   17 131   200     560     268       3      83     301       0       0       0     210    0.00     0.0     0.0    0.00    0.00   0.240   0.249   0.257   0.262   0.266   0.270   0.275   0.275   0.274   0.273   0.270   0.268   0.266   0.263   0.262
   17 132   201     558     266       3      83     301       0       0       0     210    0.00     0.0     0.0    0.00    0.00   0.233   0.244   0.251   0.260   0.265   0.269   0.274   0.274   0.274   0.273   0.270   0.268   0.266   0.263   0.262
   17 133   202     556     265       3      83     301       0       0       0     210    0.00     0.0     0.0    0.00    0.00   0.225   0.242   0.250   0.258   0.264   0.268   0.273   0.273   0.273   0.273   0.270   0.268   0.266   0.263   0.262
   17 134   203     577     285       5      83     324       0       0       0     210    0.00     0.0     0.0    1.26    0.00   0.318   0.318   0.322   0.286   0.277   0.274   0.276   0.272   0.273   0.272   0.270   0.268   0.266   0.263   0.262
   17 135   204     579     287       5      83     327       0       0       0     210    0.00     0.0     0.0    0.00    0.00   0.310   0.296   0.322   0.298   0.289   0.283   0.282   0.278   0.272   0.272   0.270   0.268   0.266   0.263   0.262
   17 136   205     569     277       5      92     327       0       0       0     210    0.00     0.0     0.0    0.00    0.00   0.270   0.269   0.285   0.279   0.277   0.276   0.278   0.277   0.275   0.273   0.270   0.268   0.266   0.263   0.262
   17 137   206     563     271       5      96     327       0       0       0     210    0.00     0.0     0.0    0.00    0.00   0.248   0.255   0.266   0.268   0.270   0.272   0.277   0.276   0.274   0.273   0.270   0.268   0.266   0.263   0.262
   17 138   207     559     268       5      98     327       0       0       0     210    0.00     0.0     0.0    0.00    0.00   0.237   0.247   0.256   0.263   0.267   0.270   0.275   0.275   0.274   0.273   0.270   0.268   0.266   0.263   0.262
   17 139   208     557     266       5      98     327       0       0       0     210    0.00     0.0     0.0    0.00    0.00   0.232   0.244   0.251   0.260   0.265   0.269   0.273   0.273   0.273   0.272   0.270   0.268   0.266   0.263   0.262
   17 140   209     556     264       5      98     327       0       0       0     210    0.00     0.0     0.0    0.00    0.00   0.221   0.241   0.249   0.259   0.263   0.267   0.272   0.272   0.273   0.272   0.270   0.268   0.266   0.263   0.262
   17 141   210     554     263       5      98     327       0       0       0     210    0.00     0.0     0.0    0.00    0.00   0.212   0.239   0.247   0.257   0.262   0.267   0.271   0.271   0.272   0.272   0.270   0.268   0.266   0.263   0.262
   17 142   211     553     262       5      98     327       0       0       0     210    0.00     0.0     0.0    0.00    0.00   0.201   0.237   0.246   0.256   0.262   0.266   0.271   0.271   0.272   0.272   0.270   0.268   0.266   0.263   0.262
   17 143   212     551     260       5      98     327       0       0       0     210    0.00     0.0     0.0    0.00    0.00   0.188   0.235   0.243   0.255   0.260   0.265   0.270   0.270   0.272   0.272   0.270   0.268   0.266   0.263   0.262
   17 144   213     549     258       5      98     327       0       0       0     210    0.00     0.0     0.0    0.00    0.00   0.178   0.232   0.241   0.253   0.258   0.263   0.268   0.268   0.271   0.272   0.270   0.268   0.266   0.263   0.262
   17 145   214     548     257       5      98     327       0       0       0     210    0.00     0.0     0.0    0.00    0.00   0.168   0.230   0.240   0.252   0.258   0.263   0.268   0.268   0.271   0.272   0.270   0.268   0.266   0.263   0.262
   17 146   215     547     255       5      98     327       0       0       0     210    0.00     0.0     0.0    0.00    0.00   0.154   0.227   0.238   0.251   0.257   0.262   0.267   0.267   0.270   0.272   0.270   0.268   0.266   0.263   0.262
   17 147   216     544     252       5      98     327       0       0       0     210    0.00     0.0     0.0    0.00    0.00   0.140   0.223   0.234   0.248   0.254   0.259   0.265   0.265   0.269   0.271   0.270   0.268   0.266   0.263   0.262
   17 148   217     541     249       5      98     327       0       0       0     210    0.00     0.0     0.0    0.00    0.00   0.128   0.217   0.229   0.244   0.251   0.256   0.262   0.263   0.268   0.271   0.270   0.268   0.266   0.263   0.262
   17 149   218     537     245       5      98     327       0       0       0     210    0.00     0.0     0.0    0.00    0.00   0.117   0.211   0.224   0.239   0.247   0.253   0.259   0.260   0.266   0.271   0.270   0.268   0.266   0.263   0.262
   17 150   219     539     247       5      98     333       0       0       0     210    0.00     0.0     0.0    0.00    0.00   0.224   0.205   0.217   0.234   0.243   0.249   0.256   0.257   0.265   0.270   0.269   0.268   0.266   0.263   0.262
   17 151   220     536     245       5      98     333       0       0       0     210    0.00     0.0     0.0    0.00    0.00   0.206   0.202   0.214   0.232   0.240   0.247   0.254   0.255   0.264   0.270   0.269   0.268   0.266   0.263   0.262
   17 152   221     533     241       5      98     333       0       0       0     210    0.00     0.0     0.0    0.00    0.00   0.187   0.198   0.209   0.228   0.237   0.244   0.251   0.253   0.262   0.269   0.269   0.268   0.266   0.263   0.262
   17 153   222     528     237       5      98     333       0       0       0     210    0.00     0.0     0.0    0.00    0.00   0.165   0.192   0.203   0.223   0.233   0.240   0.248   0.249   0.261   0.269   0.269   0.268   0.266   0.263   0.262
   17 154   223     526     235       5      98     337       0       0       0     210    0.00     0.0     0.0    0.00    0.00   0.218   0.188   0.194   0.216   0.226   0.234   0.243   0.245   0.258   0.268   0.269   0.268   0.266   0.263   0.262
   17 155   224     520     229       5      98     337       0       0       0     210    0.00     0.0     0.0    0.00    0.00   0.194   0.181   0.185   0.209   0.220   0.229   0.238   0.240   0.255   0.267   0.268   0.268   0.266   0.263   0.262
   17 156   225     520     229       5      98     339       0       0       0     210    0.00     0.0     0.0    0.00    0.00   0.222   0.179   0.183   0.207   0.218   0.227   0.236   0.239   0.254   0.266   0.268   0.268   0.266   0.263   0.262
   17 157   226     523     232       5      98     345       0       0       0     210    0.00     0.0     0.0    0.00    0.00   0.285   0.201   0.178   0.204   0.215   0.224   0.233   0.236   0.253   0.266   0.268   0.268   0.266   0.263   0.262
   17 158   227     522     230       5      98     345       0       0       0     210    0.00     0.0     0.0    0.00    0.00   0.255   0.211   0.177   0.202   0.213   0.223   0.232   0.235   0.252   0.265   0.267   0.267   0.266   0.263   0.262
   17 159   228     519     228       5      98     345       0       0       0     210    0.00     0.0     0.0    0.00    0.00   0.236   0.212   0.173   0.200   0.211   0.221   0.230   0.233   0.251   0.265   0.267   0.267   0.265   0.262   0.261
   17 160   229     519     227       5      98     351       0       0       0     210    0.00     0.0     0.0    0.00    0.00   0.281   0.230   0.165   0.194   0.205   0.215   0.225   0.229   0.248   0.264   0.266   0.267   0.265   0.262   0.261
   17 161   230     513     221       5      98     351       0       0       0     210    0.00     0.0     0.0    0.00    0.00   0.238   0.232   0.158   0.189   0.199   0.209   0.220   0.224   0.245   0.262   0.266   0.267   0.265   0.262   0.261
   17 162   231     508     216       5      98     351       0       0       0     210    0.00     0.0     0.0    0.00    0.00   0.220   0.224   0.153   0.185   0.195   0.205   0.216   0.220   0.243   0.261   0.265   0.266   0.265   0.262   0.261
   17 163   232     500     209       5      98     351       0       0       0     210    0.00     0.0     0.0    0.00    0.00   0.185   0.212   0.147   0.179   0.189   0.198   0.209   0.214   0.239   0.259   0.264   0.266   0.265   0.262   0.261
   17 164   233     495     203       5      98     351       0       0       0     210    0.00     0.0     0.0    0.00    0.00   0.160   0.203   0.143   0.176   0.185   0.194   0.205   0.210   0.237   0.258   0.264   0.266   0.265   0.262   0.261
   17 165   234     489     197       5      98     351       0       0       0     210    0.00     0.0     0.0    0.00    0.00   0.139   0.194   0.139   0.172   0.181   0.189   0.199   0.204   0.233   0.256   0.263   0.266   0.265   0.262   0.261
   17 166   235     486     195       5      98     354       0       0       0     210    0.00     0.0     0.0    0.00    0.00   0.180   0.186   0.135   0.168   0.176   0.184   0.194   0.198   0.230   0.255   0.262   0.266   0.265   0.262   0.261
   17 167   236     478     187       5      98     354       0       0       0     210    0.00     0.0     0.0    0.00    0.00   0.146   0.175   0.132   0.163   0.171   0.178   0.187   0.191   0.224   0.252   0.262   0.265   0.265   0.262   0.261
   17 168   237     474     182       5      98     354       0       0       0     210    0.00     0.0     0.0    0.00    0.00   0.128   0.169   0.130   0.159   0.167   0.174   0.183   0.186   0.221   0.250   0.261   0.265   0.265   0.262   0.261
   17 169   238     470     179       5      98     354       0       0       0     210    0.00     0.0     0.0    0.00    0.00   0.116   0.164   0.129   0.157   0.165   0.172   0.180   0.183   0.218   0.249   0.260   0.264   0.265   0.262   0.261
   17 170   239     465     173       5      98     354       0       0       0     210    0.00     0.0     0.0    0.00    0.00   0.107   0.157   0.127   0.154   0.161   0.167   0.175   0.178   0.213   0.246   0.260   0.264   0.265   0.262   0.261
   17 171   240     457     166       5      98     354       0       0       0     210    0.00     0.0     0.0    0.00    0.00   0.100   0.146   0.125   0.148   0.155   0.161   0.168   0.170   0.205   0.242   0.258   0.264   0.265   0.262   0.261
   17 172   241     450     159       5      98     354       0       0       0     210    0.00     0.0     0.0    0.00    0.00   0.094   0.138   0.124   0.144   0.150   0.156   0.162   0.164   0.196   0.237   0.256   0.264   0.265   0.262   0.261
   17 173   242     448     157       5      98     358       0       0       0     210    0.00     0.0     0.0    0.00    0.00   0.165   0.131   0.123   0.141   0.147   0.152   0.158   0.159   0.189   0.231   0.254   0.264   0.265   0.262   0.261
   17 174   243     441     150       5      98     358       0       0       0     210    0.00     0.0     0.0    0.00    0.00   0.121   0.127   0.123   0.138   0.144   0.149   0.155   0.156   0.183   0.226   0.253   0.262   0.265   0.262   0.261
   17 175   244     436     145       5      98     358       0       0       0     210    0.00     0.0     0.0    0.00    0.00   0.106   0.124   0.123   0.137   0.142   0.147   0.153   0.153   0.178   0.221   0.251   0.261   0.265   0.262   0.261
   17 176   245     433     142       5      98     359       0       0       0     210    0.00     0.0     0.0    0.00    0.00   0.118   0.121   0.123   0.135   0.141   0.145   0.151   0.151   0.172   0.214   0.249   0.261   0.265   0.262   0.261
   17 177   246     434     143       5      98     363       0       0       0     210    0.00     0.0     0.0    0.00    0.00   0.183   0.120   0.122   0.135   0.140   0.145   0.150   0.150   0.170   0.211   0.248   0.260   0.265   0.262   0.261
   17 178   247     436     144       5      98     371       0       0       0     210    0.00     0.0     0.0    0.00    0.00   0.242   0.143   0.122   0.134   0.139   0.143   0.149   0.149   0.166   0.205   0.245   0.258   0.264   0.261   0.261
   17 179   248     444     152       5      98     383       0       0       0     210    0.00     0.0     0.0    0.00    0.00   0.285   0.218   0.121   0.133   0.139   0.143   0.148   0.148   0.164   0.202   0.244   0.257   0.264   0.261   0.260
   17 180   249     442     151       5      98     385       0       0       0     210    0.00     0.0     0.0    0.00    0.00   0.257   0.227   0.121   0.133   0.138   0.143   0.148   0.148   0.163   0.200   0.243   0.256   0.264   0.261   0.260
   17 181   250     439     147       5      98     385       0       0       0     210    0.00     0.0     0.0    0.00    0.00   0.223   0.222   0.120   0.132   0.138   0.142   0.147   0.148   0.162   0.198   0.242   0.256   0.263   0.261   0.260
   17 182   251     435     143       5      98     385       0       0       0     210    0.00     0.0     0.0    0.00    0.00   0.184   0.210   0.120   0.132   0.138   0.142   0.147   0.148   0.161   0.196   0.242   0.256   0.263   0.261   0.260
   17 183   252     432     141       5      98     385       0       0       0     210    0.00     0.0     0.0    0.00    0.00   0.159   0.200   0.120   0.132   0.138   0.142   0.147   0.148   0.161   0.194   0.242   0.256   0.263   0.261   0.260
   17 184   253     430     139       5      98     385       0       0       0     210    0.00     0.0     0.0    0.00    0.00   0.141   0.194   0.120   0.132   0.138   0.142   0.147   0.147   0.160   0.193   0.242   0.256   0.263   0.261   0.260
   17 185   254     427     136       5      98     385       0       0       0     210    0.00     0.0     0.0    0.00    0.00   0.121   0.181   0.120   0.132   0.138   0.142   0.147   0.147   0.159   0.190   0.242   0.256   0.263   0.261   0.260
   17 186   255     423     131       5      98     385       0       0       0     210    0.00     0.0     0.0    0.00    0.00   0.105   0.160   0.120   0.132   0.138   0.142   0.147   0.147   0.157   0.185   0.242   0.256   0.263   0.261   0.260
   17 187   256     418     126       5      98     385       0       0       0     210    0.00     0.0     0.0    0.00    0.00   0.098   0.117   0.119   0.132   0.138   0.142   0.147   0.147   0.157   0.185   0.242   0.256   0.263   0.261   0.260
   17 188   257     417     126       5      98     385       0       0       0     210    0.00     0.0     0.0    0.00    0.00   0.092   0.117   0.119   0.132   0.138   0.142   0.147   0.147   0.157   0.185   0.242   0.256   0.263   0.261   0.260
   17 189   258     417     126       5      98     385       0       0       0     210    0.00     0.0     0.0    0.00    0.00   0.087   0.116   0.119   0.132   0.137   0.142   0.147   0.147   0.157   0.185   0.242   0.256   0.263   0.261   0.260
   17 190   259     440     149       5      98     409       0       0       0     210    0.00     0.0     0.0    0.05    0.00   0.306   0.238   0.119   0.132   0.137   0.142   0.147   0.147   0.157   0.185   0.242   0.255   0.263   0.261   0.260
   17 191   260     442     151       5      98     415       0       0       0     210    0.00     0.0     0.0    0.00    0.00   0.287   0.254   0.162   0.131   0.137   0.142   0.147   0.147   0.157   0.184   0.242   0.255   0.263   0.260   0.260
   17 192   261     442     150       5      98     418       0       0       0     210    0.00     0.0     0.0    0.00    0.00   0.268   0.251   0.187   0.131   0.137   0.141   0.146   0.146   0.156   0.184   0.241   0.255   0.263   0.260   0.259
   17 193   262     442     150       5      98     421       0       0       0     210    0.00     0.0     0.0    0.00    0.00   0.263   0.249   0.204   0.130   0.136   0.141   0.146   0.146   0.156   0.184   0.241   0.254   0.262   0.260   0.259
   17 194   263     437     146       5      98     421       0       0       0     210    0.00     0.0     0.0    0.00    0.00   0.220   0.236   0.208   0.129   0.136   0.140   0.146   0.146   0.156   0.183   0.241   0.254   0.262   0.259   0.259
   17 195   264     443     151       5      98     430       0       0       0     210    0.00     0.0     0.0    0.00    0.00   0.292   0.248   0.227   0.129   0.135   0.140   0.145   0.145   0.155   0.183   0.240   0.254   0.262   0.259   0.258
   17 196   265     440     148       5      98     430       0       0       0     210    0.00     0.0     0.0    0.00    0.00   0.243   0.239   0.245   0.130   0.135   0.140   0.145   0.145   0.155   0.183   0.240   0.253   0.261   0.259   0.258
   17 197   266     436     145       5      98     430       0       0       0     210    0.00     0.0     0.0    0.00    0.00   0.220   0.233   0.238   0.129   0.134   0.139   0.144   0.145   0.155   0.182   0.239   0.253   0.261   0.258   0.258
   17 198   267     433     141       5      98     430       0       0       0     210    0.00     0.0     0.0    0.00    0.00   0.178   0.220   0.227   0.129   0.134   0.139   0.144   0.145   0.155   0.182   0.239   0.253   0.261   0.258   0.258
   17 199   268     429     137       5      98     430       0       0       0     210    0.00     0.0     0.0    0.00    0.00   0.143   0.205   0.213   0.129   0.134   0.139   0.144   0.145   0.155   0.182   0.239   0.253   0.261   0.258   0.258
   17 200   269     424     133       5      98     430       0       0       0     210    0.00     0.0     0.0    0.00    0.00   0.116   0.183   0.193   0.129   0.134   0.139   0.144   0.145   0.155   0.182   0.239   0.253   0.261   0.258   0.258
   17 201   270     420     129       5      98     430       0       0       0     210    0.00     0.0     0.0    0.00    0.00   0.104   0.162   0.168   0.129   0.134   0.139   0.144   0.145   0.155   0.182   0.239   0.253   0.261   0.258   0.258
   17 202   271     418     126       5      98     430       0       0       0     210    0.00     0.0     0.0    0.00    0.00   0.097   0.152   0.151   0.129   0.134   0.139   0.144   0.145   0.155   0.182   0.239   0.253   0.261   0.258   0.258
   17 203   272     418     126       5      98     433       0       0       0     210    0.00     0.0     0.0    0.00    0.00   0.149   0.136   0.126   0.129   0.134   0.139   0.144   0.145   0.155   0.182   0.239   0.253   0.261   0.258   0.258
   17 204   273     415     123       5      98     433       0       0       0     210    0.00     0.0     0.0    0.00    0.00   0.112   0.130   0.124   0.129   0.134   0.139   0.144   0.145   0.155   0.182   0.239   0.253   0.261   0.258   0.258
   17 205   274     417     126       5      98     437       0       0       0     210    0.00     0.0     0.0    0.00    0.00   0.177   0.123   0.123   0.129   0.134   0.139   0.144   0.145   0.155   0.182   0.239   0.253   0.261   0.258   0.258
   17 206   275     438     146       5      98     459       0       0       0     210    0.00     0.0     0.0    0.15    0.00   0.307   0.256   0.146   0.128   0.133   0.138   0.144   0.144   0.154   0.182   0.239   0.252   0.260   0.258   0.257
   17 207   276     461     169       9      98     487       0       0       0     210    0.00     0.0     0.0    3.67    0.00   0.314   0.318   0.322   0.210   0.133   0.138   0.144   0.144   0.154   0.182   0.239   0.252   0.260   0.258   0.257
   17 208   277     465     174       9      98     493       0       0       0     210    0.00     0.0     0.0    0.00    0.00   0.314   0.307   0.322   0.266   0.138   0.138   0.143   0.144   0.154   0.181   0.238   0.252   0.260   0.257   0.257
   17 209   278     462     171       9      98     493       0       0       0     210    0.00     0.0     0.0    0.00    0.00   0.259   0.271   0.283   0.261   0.207   0.137   0.143   0.143   0.153   0.181   0.238   0.251   0.259   0.257   0.256
   17 210   279     458     166       9      98     493       0       0       0     210    0.00     0.0     0.0    0.00    0.00   0.227   0.250   0.261   0.257   0.229   0.136   0.142   0.142   0.152   0.180   0.236   0.250   0.258   0.256   0.255
   17 211   280     454     163       9      98     495       0       0       0     210    0.00     0.0     0.0    0.00    0.00   0.229   0.242   0.255   0.257   0.224   0.135   0.141   0.141   0.152   0.178   0.235   0.249   0.257   0.255   0.255
   17 212   281     449     157       9      98     495       0       0       0     210    0.00     0.0     0.0    0.00    0.00   0.205   0.232   0.247   0.251   0.220   0.134   0.140   0.141   0.151   0.177   0.234   0.248   0.256   0.254   0.254
   17 213   282     451     159       9      98     503       0       0       0     210    0.00     0.0     0.0    0.00    0.00   0.279   0.243   0.250   0.248   0.216   0.132   0.138   0.139   0.149   0.176   0.233   0.246   0.255   0.253   0.252
   17 214   283     445     153       9      98     503       0       0       0     210    0.00     0.0     0.0    0.00    0.00   0.229   0.236   0.245   0.249   0.212   0.131   0.137   0.138   0.148   0.174   0.231   0.245   0.253   0.251   0.251
   17 215   284     448     157       9      98     510       0       0       0     210    0.00     0.0     0.0    0.00    0.00   0.290   0.249   0.254   0.249   0.210   0.130   0.136   0.137   0.148   0.174   0.230   0.244   0.252   0.251   0.251
   17 216   285     444     153       9      98     510       0       0       0     210    0.00     0.0     0.0    0.00    0.00   0.243   0.241   0.249   0.258   0.210   0.129   0.135   0.137   0.147   0.173   0.229   0.243   0.251   0.250   0.250
   17 217   286     438     147       9      98     510       0       0       0     210    0.00     0.0     0.0    0.00    0.00   0.213   0.232   0.242   0.253   0.206   0.128   0.134   0.135   0.146   0.171   0.227   0.241   0.250   0.248   0.248
   17 218   287     437     146       9      98     510       0       0       0     210    0.00     0.0     0.0    0.00    0.00   0.196   0.231   0.242   0.252   0.206   0.128   0.134   0.135   0.146   0.171   0.227   0.241   0.250   0.248   0.248
   17 219   288     436     145       9      98     510       0       0       0     210    0.00     0.0     0.0    0.00    0.00   0.182   0.230   0.241   0.252   0.206   0.128   0.134   0.135   0.146   0.171   0.227   0.241   0.250   0.248   0.248

*DSSAT Cropping System Model Ver. 4.8.5.000 -release  FEB 02, 2026 11:47:14

*RUN   2        : 2                         WHAPS048 TUDU1701    2
 MODEL          : WHAPS048 - Wheat
 EXPERIMENT     : TUDU1701 WH
 DATA PATH      :
 TREATMENT  2   : 2                         WHAPS048
  
!                                                                                                                                   Soil water content (mm3/mm3) by soil depth (cm):
!                                                                                                                                   0-5    5-15   15-20   20-30   30-40   40-50   50-60   60-70   70-90  90-110 110-130 130-150 150-170 170-190 190-210
@YEAR DOY   DAS    SWTD    SWXD    ROFC    DRNC    PREC    IR#C    IRRC   LATFC    DTWT    MWTD    TDFD    TDFC    ROFD    ROSD    SW1D    SW2D    SW3D    SW4D    SW5D    SW6D    SW7D    SW8D    SW9D   SW10D   SW11D   SW12D   SW13D   SW14D   SW15D
   16 297     0     545     253       0       0       0       0       0       0     210    0.00     0.0     0.0    0.00    0.00   0.223   0.234   0.249   0.249   0.269   0.269   0.269   0.268   0.268   0.264   0.259   0.259   0.259   0.259   0.259
   16 298     1     545     254       0       0       2       0       0       0     210    0.00     0.0     0.0    0.00    0.00   0.264   0.238   0.248   0.248   0.268   0.268   0.268   0.267   0.267   0.264   0.259   0.259   0.259   0.259   0.259
   16 299     2     546     255       0       0       3       0       0       0     210    0.00     0.0     0.0    0.00    0.00   0.260   0.247   0.247   0.247   0.268   0.268   0.268   0.267   0.267   0.263   0.258   0.259   0.259   0.259   0.259
   16 300     3     545     254       0       0       3       0       0       0     210    0.00     0.0     0.0    0.00    0.00   0.245   0.246   0.251   0.250   0.267   0.267   0.268   0.267   0.267   0.263   0.258   0.258   0.258   0.258   0.258
   16 301     4     544     253       0       0       3       0       0       0     210    0.00     0.0     0.0    0.00    0.00   0.235   0.244   0.251   0.251   0.266   0.267   0.267   0.266   0.267   0.263   0.258   0.258   0.258   0.258   0.258
   16 302     5     542     251       0       0       3       0       0       0     210    0.00     0.0     0.0    0.00    0.00   0.214   0.243   0.250   0.251   0.266   0.267   0.267   0.266   0.267   0.263   0.258   0.258   0.258   0.258   0.258
   16 303     6     542     250       0       0       3       0       0       0     210    0.00     0.0     0.0    0.00    0.00   0.198   0.242   0.250   0.250   0.266   0.267   0.267   0.266   0.266   0.263   0.258   0.258   0.258   0.258   0.258
   16 304     7     541     249       0       0       3       0       0       0     210    0.00     0.0     0.0    0.00    0.00   0.181   0.241   0.250   0.250   0.266   0.267   0.267   0.266   0.266   0.263   0.258   0.258   0.258   0.258   0.258
   16 305     8     540     249       0       0       3       0       0       0     210    0.00     0.0     0.0    0.00    0.00   0.166   0.240   0.249   0.250   0.266   0.267   0.267   0.266   0.266   0.263   0.258   0.258   0.258   0.258   0.258
   16 306     9     539     248       0       0       3       0       0       0     210    0.00     0.0     0.0    0.00    0.00   0.152   0.238   0.249   0.250   0.266   0.266   0.267   0.266   0.266   0.263   0.258   0.258   0.258   0.258   0.258
   16 307    10     538     247       0       0       3       0       0       0     210    0.00     0.0     0.0    0.00    0.00   0.144   0.238   0.248   0.250   0.266   0.266   0.267   0.266   0.266   0.263   0.258   0.258   0.258   0.258   0.258
   16 308    11     538     246       0       0       3       0       0       0     210    0.00     0.0     0.0    0.00    0.00   0.133   0.236   0.248   0.249   0.266   0.266   0.267   0.266   0.266   0.263   0.258   0.258   0.258   0.258   0.258
   16 309    12     537     246       0       0       3       0       0       0     210    0.00     0.0     0.0    0.00    0.00   0.122   0.235   0.248   0.249   0.266   0.266   0.267   0.266   0.266   0.263   0.258   0.258   0.258   0.258   0.258
   16 310    13     546     255       0       0      13       0       0       0     210    0.00     0.0     0.0    0.00    0.00   0.279   0.250   0.255   0.251   0.265   0.266   0.267   0.266   0.266   0.263   0.258   0.258   0.258   0.258   0.258
   16 311    14     554     263       0       0      21       0       0       0     210    0.00     0.0     0.0    0.00    0.00   0.317   0.278   0.285   0.264   0.268   0.266   0.267   0.266   0.266   0.263   0.258   0.258   0.258   0.258   0.258
   16 312    15     554     262       0       0      21       0       0       0     210    0.00     0.0     0.0    0.00    0.00   0.275   0.261   0.268   0.264   0.268   0.271   0.276   0.276   0.275   0.263   0.258   0.258   0.258   0.258   0.258
   16 313    16     553     262       0       0      21       0       0       0     210    0.00     0.0     0.0    0.00    0.00   0.254   0.253   0.260   0.264   0.267   0.271   0.276   0.276   0.275   0.273   0.258   0.258   0.258   0.258   0.258
   16 314    17     556     264       0       0      24       0       0       0     210    0.00     0.0     0.0    0.00    0.00   0.278   0.257   0.268   0.267   0.269   0.273   0.276   0.276   0.275   0.273   0.258   0.258   0.258   0.258   0.258
   16 315    18     562     271       0       0      31       0       0       0     210    0.00     0.0     0.0    0.00    0.00   0.317   0.276   0.290   0.273   0.274   0.275   0.278   0.278   0.275   0.273   0.258   0.258   0.258   0.258   0.258
   16 316    19     567     276       0       0      36       0       0       0     210    0.00     0.0     0.0    0.00    0.00   0.319   0.284   0.309   0.282   0.280   0.280   0.281   0.279   0.276   0.273   0.258   0.257   0.258   0.258   0.258
   16 317    20     567     275       0       0      36       0       0       0     210    0.00     0.0     0.0    0.00    0.00   0.276   0.265   0.280   0.272   0.273   0.275   0.279   0.278   0.276   0.273   0.270   0.268   0.266   0.263   0.260
   16 318    21     563     272       0       3      36       0       0       0     210    0.00     0.0     0.0    0.00    0.00   0.255   0.255   0.266   0.267   0.270   0.273   0.278   0.277   0.276   0.273   0.270   0.268   0.266   0.263   0.262
   16 319    22     561     270       0       5      36       0       0       0     210    0.00     0.0     0.0    0.00    0.00   0.244   0.250   0.259   0.264   0.268   0.273   0.278   0.277   0.276   0.273   0.270   0.268   0.266   0.263   0.262
   16 320    23     566     274       0       5      41       0       0       0     210    0.00     0.0     0.0    0.00    0.00   0.295   0.259   0.269   0.267   0.270   0.273   0.278   0.278   0.277   0.273   0.270   0.268   0.266   0.263   0.262
   16 321    24     574     282       0       5      49       0       0       0     210    0.00     0.0     0.0    0.00    0.00   0.319   0.286   0.301   0.277   0.276   0.277   0.280   0.279   0.276   0.274   0.270   0.268   0.266   0.263   0.262
[...]
   17 140   209     554     263       5     110     327       0       0       0     210    0.00     0.0     0.0    0.00    0.00   0.203   0.240   0.250   0.259   0.265   0.268   0.272   0.273   0.272   0.272   0.269   0.267   0.265   0.262   0.261
   17 141   210     553     261       5     110     327       0       0       0     210    0.00     0.0     0.0    0.00    0.00   0.186   0.238   0.249   0.258   0.264   0.268   0.272   0.272   0.272   0.272   0.269   0.267   0.265   0.262   0.261
   17 142   211     552     260       5     110     327       0       0       0     210    0.00     0.0     0.0    0.00    0.00   0.171   0.236   0.248   0.258   0.264   0.267   0.272   0.272   0.272   0.272   0.269   0.267   0.265   0.262   0.261
   17 143   212     550     259       5     110     327       0       0       0     210    0.00     0.0     0.0    0.00    0.00   0.157   0.234   0.246   0.257   0.263   0.266   0.271   0.271   0.271   0.271   0.269   0.267   0.265   0.262   0.261
   17 144   213     548     257       5     110     327       0       0       0     210    0.00     0.0     0.0    0.00    0.00   0.143   0.232   0.245   0.255   0.262   0.266   0.270   0.270   0.271   0.271   0.269   0.267   0.265   0.262   0.261
   17 145   214     547     256       5     110     327       0       0       0     210    0.00     0.0     0.0    0.00    0.00   0.133   0.230   0.244   0.255   0.261   0.265   0.270   0.270   0.271   0.271   0.269   0.267   0.265   0.262   0.261
   17 146   215     546     255       5     110     327       0       0       0     210    0.00     0.0     0.0    0.00    0.00   0.123   0.228   0.243   0.254   0.261   0.265   0.269   0.270   0.270   0.271   0.269   0.267   0.265   0.262   0.261
   17 147   216     545     253       5     110     327       0       0       0     210    0.00     0.0     0.0    0.00    0.00   0.113   0.226   0.241   0.253   0.259   0.264   0.268   0.269   0.270   0.271   0.269   0.267   0.265   0.262   0.261
   17 148   217     543     252       5     110     327       0       0       0     210    0.00     0.0     0.0    0.00    0.00   0.106   0.223   0.239   0.251   0.258   0.263   0.267   0.268   0.269   0.271   0.269   0.267   0.265   0.262   0.261
   17 149   218     541     250       5     110     327       0       0       0     210    0.00     0.0     0.0    0.00    0.00   0.099   0.220   0.237   0.249   0.256   0.261   0.266   0.267   0.268   0.270   0.269   0.267   0.265   0.262   0.261
   17 150   219     545     254       5     110     333       0       0       0     210    0.00     0.0     0.0    0.00    0.00   0.208   0.216   0.234   0.247   0.255   0.260   0.265   0.265   0.267   0.270   0.269   0.267   0.265   0.262   0.261
   17 151   220     543     252       5     110     333       0       0       0     210    0.00     0.0     0.0    0.00    0.00   0.190   0.214   0.232   0.246   0.254   0.259   0.264   0.264   0.266   0.270   0.269   0.267   0.265   0.262   0.261
   17 152   221     542     250       5     110     333       0       0       0     210    0.00     0.0     0.0    0.00    0.00   0.173   0.211   0.230   0.245   0.252   0.258   0.263   0.264   0.266   0.269   0.269   0.267   0.265   0.262   0.261
   17 153   222     539     248       5     110     333       0       0       0     210    0.00     0.0     0.0    0.00    0.00   0.158   0.209   0.228   0.243   0.251   0.257   0.262   0.263   0.265   0.269   0.269   0.267   0.265   0.262   0.261
   17 154   223     541     249       5     110     337       0       0       0     210    0.00     0.0     0.0    0.00    0.00   0.219   0.205   0.226   0.241   0.249   0.255   0.261   0.261   0.264   0.269   0.269   0.267   0.265   0.262   0.261
   17 155   224     538     246       5     110     337       0       0       0     210    0.00     0.0     0.0    0.00    0.00   0.199   0.201   0.223   0.239   0.247   0.253   0.259   0.260   0.263   0.268   0.268   0.267   0.265   0.262   0.261
   17 156   225     538     247       5     110     339       0       0       0     210    0.00     0.0     0.0    0.00    0.00   0.221   0.200   0.221   0.238   0.246   0.252   0.258   0.259   0.262   0.268   0.268   0.267   0.265   0.262   0.261
   17 157   226     543     251       5     110     345       0       0       0     210    0.00     0.0     0.0    0.00    0.00   0.289   0.221   0.220   0.236   0.245   0.251   0.257   0.258   0.262   0.268   0.268   0.267   0.265   0.262   0.261
   17 158   227     541     250       5     110     345       0       0       0     210    0.00     0.0     0.0    0.00    0.00   0.255   0.232   0.218   0.235   0.244   0.250   0.256   0.257   0.261   0.267   0.267   0.267   0.265   0.262   0.261
   17 159   228     538     247       5     110     345       0       0       0     210    0.00     0.0     0.0    0.00    0.00   0.236   0.233   0.215   0.232   0.242   0.248   0.255   0.256   0.260   0.266   0.267   0.266   0.264   0.262   0.260
   17 160   229     540     249       5     110     351       0       0       0     210    0.00     0.0     0.0    0.00    0.00   0.289   0.247   0.224   0.229   0.238   0.246   0.252   0.253   0.258   0.265   0.266   0.266   0.264   0.261   0.260
   17 161   230     536     244       5     110     351       0       0       0     210    0.00     0.0     0.0    0.00    0.00   0.248   0.241   0.245   0.225   0.235   0.243   0.249   0.251   0.256   0.264   0.265   0.265   0.263   0.261   0.260
   17 162   231     531     240       5     110     351       0       0       0     210    0.00     0.0     0.0    0.00    0.00   0.227   0.237   0.240   0.221   0.232   0.240   0.247   0.248   0.254   0.262   0.264   0.264   0.263   0.260   0.259
   17 163   232     527     236       5     110     351       0       0       0     210    0.00     0.0     0.0    0.00    0.00   0.203   0.232   0.236   0.218   0.229   0.237   0.244   0.246   0.252   0.261   0.263   0.264   0.263   0.260   0.259
   17 164   233     524     232       5     110     351       0       0       0     210    0.00     0.0     0.0    0.00    0.00   0.183   0.227   0.232   0.215   0.226   0.235   0.243   0.244   0.250   0.261   0.263   0.264   0.263   0.260   0.259
   17 165   234     520     229       5     110     351       0       0       0     210    0.00     0.0     0.0    0.00    0.00   0.163   0.223   0.228   0.212   0.224   0.232   0.240   0.242   0.249   0.260   0.262   0.264   0.263   0.260   0.259
   17 166   235     520     228       5     110     354       0       0       0     210    0.00     0.0     0.0    0.00    0.00   0.203   0.217   0.224   0.209   0.221   0.230   0.238   0.240   0.247   0.259   0.262   0.264   0.263   0.260   0.259
   17 167   236     514     223       5     110     354       0       0       0     210    0.00     0.0     0.0    0.00    0.00   0.177   0.210   0.218   0.203   0.216   0.226   0.234   0.236   0.244   0.257   0.261   0.264   0.263   0.260   0.259
   17 168   237     511     219       5     110     354       0       0       0     210    0.00     0.0     0.0    0.00    0.00   0.159   0.205   0.214   0.200   0.213   0.223   0.232   0.234   0.243   0.257   0.260   0.263   0.263   0.260   0.259
   17 169   238     508     216       5     110     354       0       0       0     210    0.00     0.0     0.0    0.00    0.00   0.144   0.202   0.211   0.198   0.211   0.222   0.231   0.233   0.242   0.256   0.260   0.263   0.263   0.260   0.259
   17 170   239     504     213       5     110     354       0       0       0     210    0.00     0.0     0.0    0.00    0.00   0.127   0.196   0.206   0.195   0.208   0.219   0.228   0.230   0.240   0.255   0.259   0.263   0.263   0.260   0.259
   17 171   240     499     207       5     110     354       0       0       0     210    0.00     0.0     0.0    0.00    0.00   0.113   0.188   0.199   0.189   0.203   0.214   0.224   0.227   0.237   0.253   0.258   0.262   0.263   0.260   0.259
   17 172   241     494     202       5     110     354       0       0       0     210    0.00     0.0     0.0    0.00    0.00   0.105   0.181   0.193   0.184   0.198   0.210   0.220   0.223   0.234   0.251   0.257   0.261   0.263   0.260   0.259
   17 173   242     494     202       5     110     358       0       0       0     210    0.00     0.0     0.0    0.00    0.00   0.174   0.174   0.187   0.179   0.194   0.207   0.217   0.220   0.231   0.250   0.257   0.261   0.263   0.260   0.259
   17 174   243     489     197       5     110     358       0       0       0     210    0.00     0.0     0.0    0.00    0.00   0.153   0.168   0.182   0.175   0.190   0.203   0.214   0.217   0.229   0.248   0.256   0.261   0.263   0.260   0.259
   17 175   244     485     194       5     110     358       0       0       0     210    0.00     0.0     0.0    0.00    0.00   0.137   0.163   0.178   0.172   0.187   0.201   0.212   0.215   0.227   0.247   0.255   0.260   0.263   0.260   0.259
   17 176   245     483     192       5     110     359       0       0       0     210    0.00     0.0     0.0    0.00    0.00   0.143   0.160   0.174   0.169   0.185   0.198   0.210   0.213   0.226   0.247   0.255   0.260   0.263   0.260   0.259
   17 177   246     485     194       5     110     363       0       0       0     210    0.00     0.0     0.0    0.00    0.00   0.207   0.157   0.172   0.168   0.184   0.197   0.209   0.212   0.225   0.246   0.255   0.260   0.263   0.260   0.259
   17 178   247     487     196       5     110     371       0       0       0     210    0.00     0.0     0.0    0.00    0.00   0.289   0.180   0.166   0.163   0.179   0.193   0.205   0.208   0.222   0.244   0.253   0.259   0.262   0.260   0.259
   17 179   248     495     204       5     110     383       0       0       0     210    0.00     0.0     0.0    0.00    0.00   0.305   0.260   0.201   0.160   0.177   0.191   0.203   0.206   0.220   0.243   0.252   0.258   0.262   0.259   0.258
   17 180   249     494     203       5     110     385       0       0       0     210    0.00     0.0     0.0    0.00    0.00   0.284   0.260   0.236   0.159   0.175   0.189   0.201   0.205   0.219   0.242   0.252   0.257   0.261   0.259   0.258
   17 181   250     491     199       5     110     385       0       0       0     210    0.00     0.0     0.0    0.00    0.00   0.245   0.247   0.248   0.167   0.173   0.187   0.200   0.203   0.218   0.241   0.251   0.256   0.261   0.258   0.257
   17 182   251     487     196       5     110     385       0       0       0     210    0.00     0.0     0.0    0.00    0.00   0.229   0.242   0.248   0.165   0.171   0.185   0.198   0.202   0.216   0.239   0.250   0.256   0.260   0.258   0.257
   17 183   252     486     194       5     110     385       0       0       0     210    0.00     0.0     0.0    0.00    0.00   0.210   0.240   0.247   0.164   0.170   0.185   0.197   0.201   0.216   0.239   0.250   0.255   0.260   0.258   0.257
   17 184   253     484     193       5     110     385       0       0       0     210    0.00     0.0     0.0    0.00    0.00   0.193   0.238   0.246   0.164   0.169   0.184   0.197   0.201   0.216   0.239   0.250   0.255   0.260   0.258   0.257
   17 185   254     482     191       5     110     385       0       0       0     210    0.00     0.0     0.0    0.00    0.00   0.176   0.235   0.243   0.163   0.168   0.183   0.196   0.200   0.215   0.238   0.250   0.255   0.260   0.258   0.257
   17 186   255     479     188       5     110     385       0       0       0     210    0.00     0.0     0.0    0.00    0.00   0.159   0.231   0.240   0.161   0.166   0.182   0.194   0.198   0.214   0.238   0.249   0.255   0.260   0.258   0.257
   17 187   256     476     184       5     110     385       0       0       0     210    0.00     0.0     0.0    0.00    0.00   0.142   0.226   0.236   0.159   0.164   0.179   0.192   0.196   0.212   0.237   0.249   0.254   0.260   0.258   0.257
   17 188   257     472     181       5     110     385       0       0       0     210    0.00     0.0     0.0    0.00    0.00   0.127   0.221   0.232   0.156   0.162   0.177   0.190   0.194   0.210   0.236   0.248   0.254   0.260   0.258   0.257
   17 189   258     470     179       5     110     385       0       0       0     210    0.00     0.0     0.0    0.00    0.00   0.117   0.218   0.229   0.155   0.161   0.175   0.189   0.193   0.209   0.235   0.248   0.254   0.259   0.258   0.257
   17 190   259     490     198       5     110     409       0       0       0     210    0.00     0.0     0.0    0.53    0.00   0.312   0.292   0.287   0.173   0.159   0.173   0.187   0.191   0.208   0.233   0.247   0.253   0.259   0.257   0.256
   17 191   260     493     201       5     110     415       0       0       0     210    0.00     0.0     0.0    0.00    0.00   0.307   0.291   0.316   0.205   0.157   0.171   0.185   0.189   0.206   0.232   0.246   0.252   0.258   0.257   0.256
   17 192   261     492     201       5     110     418       0       0       0     210    0.00     0.0     0.0    0.00    0.00   0.293   0.277   0.316   0.236   0.156   0.169   0.184   0.188   0.205   0.231   0.245   0.252   0.257   0.256   0.255
   17 193   262     492     201       5     110     421       0       0       0     210    0.00     0.0     0.0    0.00    0.00   0.288   0.270   0.309   0.262   0.157   0.168   0.182   0.187   0.204   0.231   0.245   0.251   0.257   0.256   0.255
   17 194   263     488     196       5     110     421       0       0       0     210    0.00     0.0     0.0    0.00    0.00   0.244   0.251   0.275   0.258   0.194   0.166   0.181   0.185   0.203   0.229   0.244   0.250   0.256   0.255   0.254
   17 195   264     493     202       5     110     430       0       0       0     210    0.00     0.0     0.0    0.00    0.00   0.309   0.269   0.287   0.267   0.200   0.165   0.179   0.184   0.201   0.228   0.243   0.249   0.255   0.255   0.254
   17 196   265     490     199       5     110     430       0       0       0     210    0.00     0.0     0.0    0.00    0.00   0.260   0.253   0.266   0.262   0.239   0.164   0.178   0.183   0.200   0.227   0.242   0.249   0.255   0.254   0.254
   17 197   266     486     195       5     110     430       0       0       0     210    0.00     0.0     0.0    0.00    0.00   0.232   0.243   0.255   0.258   0.249   0.162   0.176   0.181   0.199   0.226   0.241   0.248   0.254   0.253   0.253
   17 198   267     482     190       5     110     430       0       0       0     210    0.00     0.0     0.0    0.00    0.00   0.217   0.236   0.249   0.254   0.246   0.161   0.175   0.180   0.198   0.225   0.240   0.247   0.253   0.253   0.252
   17 199   268     480     188       5     110     430       0       0       0     210    0.00     0.0     0.0    0.00    0.00   0.198   0.234   0.247   0.253   0.244   0.160   0.174   0.179   0.197   0.224   0.240   0.246   0.253   0.253   0.252
   17 200   269     477     186       5     110     430       0       0       0     210    0.00     0.0     0.0    0.00    0.00   0.180   0.230   0.244   0.251   0.243   0.159   0.172   0.177   0.196   0.224   0.239   0.246   0.253   0.253   0.252
   17 201   270     475     183       5     110     430       0       0       0     210    0.00     0.0     0.0    0.00    0.00   0.163   0.227   0.242   0.249   0.241   0.158   0.171   0.176   0.195   0.223   0.239   0.246   0.253   0.253   0.252
   17 202   271     473     182       5     110     430       0       0       0     210    0.00     0.0     0.0    0.00    0.00   0.150   0.225   0.240   0.248   0.240   0.158   0.171   0.176   0.194   0.223   0.239   0.246   0.252   0.253   0.252
   17 203   272     474     182       5     110     433       0       0       0     210    0.00     0.0     0.0    0.00    0.00   0.194   0.222   0.238   0.246   0.239   0.157   0.170   0.175   0.194   0.222   0.239   0.246   0.252   0.253   0.252
   17 204   273     472     180       5     110     433       0       0       0     210    0.00     0.0     0.0    0.00    0.00   0.178   0.219   0.236   0.245   0.237   0.156   0.169   0.174   0.193   0.222   0.239   0.245   0.252   0.253   0.252
   17 205   274     475     183       5     110     437       0       0       0     210    0.00     0.0     0.0    0.00    0.00   0.231   0.222   0.235   0.244   0.237   0.156   0.168   0.174   0.193   0.222   0.238   0.245   0.252   0.253   0.252
   17 206   275     493     202       6     110     459       0       0       0     210    0.00     0.0     0.0    0.95    0.00   0.312   0.313   0.312   0.267   0.242   0.156   0.168   0.173   0.192   0.221   0.238   0.245   0.252   0.252   0.252
   17 207   276     516     224      11     110     487       0       0       0     210    0.00     0.0     0.0    4.51    0.00   0.316   0.318   0.323   0.329   0.330   0.219   0.167   0.173   0.192   0.221   0.238   0.245   0.251   0.252   0.252
   17 208   277     520     228      11     110     493       0       0       0     210    0.00     0.0     0.0    0.00    0.00   0.313   0.308   0.322   0.326   0.330   0.277   0.173   0.172   0.191   0.220   0.237   0.244   0.251   0.252   0.251
   17 209   278     516     225      11     110     493       0       0       0     210    0.00     0.0     0.0    0.00    0.00   0.259   0.271   0.283   0.291   0.296   0.272   0.275   0.203   0.191   0.219   0.236   0.244   0.250   0.251   0.251
   17 210   279     511     219      11     110     493       0       0       0     210    0.00     0.0     0.0    0.00    0.00   0.227   0.250   0.261   0.272   0.278   0.269   0.273   0.254   0.189   0.218   0.235   0.242   0.249   0.250   0.250
   17 211   280     507     216      11     110     495       0       0       0     210    0.00     0.0     0.0    0.00    0.00   0.232   0.243   0.256   0.264   0.272   0.271   0.274   0.251   0.188   0.217   0.234   0.241   0.248   0.249   0.249
   17 212   281     501     210      11     110     495       0       0       0     210    0.00     0.0     0.0    0.00    0.00   0.212   0.235   0.248   0.260   0.266   0.268   0.273   0.250   0.186   0.215   0.233   0.240   0.247   0.248   0.248
   17 213   282     503     212      11     110     503       0       0       0     210    0.00     0.0     0.0    0.00    0.00   0.285   0.247   0.253   0.258   0.261   0.264   0.270   0.248   0.185   0.214   0.231   0.239   0.246   0.247   0.247
   17 214   283     497     206      11     110     503       0       0       0     210    0.00     0.0     0.0    0.00    0.00   0.235   0.238   0.247   0.257   0.263   0.264   0.267   0.245   0.183   0.212   0.230   0.237   0.244   0.246   0.246
   17 215   284     500     209      11     110     510       0       0       0     210    0.00     0.0     0.0    0.00    0.00   0.295   0.252   0.257   0.258   0.261   0.262   0.265   0.244   0.182   0.211   0.229   0.236   0.244   0.245   0.245
   17 216   285     496     205      11     110     510       0       0       0     210    0.00     0.0     0.0    0.00    0.00   0.248   0.243   0.250   0.259   0.264   0.268   0.263   0.242   0.181   0.210   0.228   0.236   0.243   0.244   0.244
   17 217   286     490     199      11     110     510       0       0       0     210    0.00     0.0     0.0    0.00    0.00   0.218   0.237   0.244   0.254   0.260   0.265   0.260   0.240   0.180   0.209   0.226   0.234   0.242   0.243   0.243
   17 218   287     489     198      11     110     510       0       0       0     210    0.00     0.0     0.0    0.00    0.00   0.201   0.235   0.244   0.253   0.260   0.265   0.260   0.240   0.180   0.209   0.226   0.234   0.242   0.243   0.243
   17 219   288     488     197      11     110     510       0       0       0     210    0.00     0.0     0.0    0.00    0.00   0.186   0.234   0.243   0.253   0.260   0.265   0.260   0.240   0.180   0.209   0.226   0.234   0.242   0.243   0.243
