*SOIL INORGANIC N BALANCE

*DSSAT Cropping System Model Ver. 4.8.5.000 -release  FEB 02, 2026 11:47:14

*RUN   1        : 1                         WHAPS048 TUDU1701    1
 MODEL          : WHAPS048 - Wheat
 EXPERIMENT     : TUDU1701 WH
 DATA PATH      :
 TREATMENT  1   : 1                         WHAPS048
  


!SOIL INORGANIC N BALANCE                         Initial               Final
!                                                Year/Doy            Year/Doy
!                                                  16/298              17/219
!                                               (kg[N]/ha)          (kg[N]/ha)
! Soil N state variables:
!   Soil NO3                                        93.54               58.24
!   Soil NH4                                         9.05                3.88
!   Soil Urea                                        0.00                0.00
!   Soil N gases                                     0.00                0.05
!   Unreleased fert N                                                    0.00

! N additions:
!   Fertilizer N                                   120.00
!   Mineralized N                                   59.49

! N subtractions:
!   N immobilized                                                        2.56
!   N leached                                                           20.57
!   N loss to tile drainage                                              0.00
!   N Uptake From Soil                                                 192.08
!   NH3 loss                                                             4.02
!   N2O loss                                                             0.12
!   N2 loss                                                              0.02
!   NO loss                                                              0.54

!   Total N balance                                282.08              282.08
!   Balance                                                             0.000

!===============================================================================

*DSSAT Cropping System Model Ver. 4.8.5.000 -release  FEB 02, 2026 11:47:14

*RUN   2        : 2                         WHAPS048 TUDU1701    2
 MODEL          : WHAPS048 - Wheat
 EXPERIMENT     : TUDU1701 WH
 DATA PATH      :
 TREATMENT  2   : 2                         WHAPS048
  


!SOIL INORGANIC N BALANCE                         Initial               Final
!                                                Year/Doy            Year/Doy
!                                                  16/298              17/219
!                                               (kg[N]/ha)          (kg[N]/ha)
! Soil N state variables:
!   Soil NO3                                        93.54               58.32
!   Soil NH4                                         9.05                3.93
!   Soil Urea                                        0.00                0.00
!   Soil N gases                                     0.00                0.05
!   Unreleased fert N                                                    0.00

! N additions:
!   Fertilizer N                                   120.00
!   Mineralized N                                   59.07

! N subtractions:
!   N immobilized                                                        2.56
!   N leached                                                           20.49
!   N loss to tile drainage                                              0.00
!   N Uptake From Soil                                                 195.77
!   NH3 loss                                                             0.00
!   N2O loss                                                             0.10
!   N2 loss                                                              0.02
!   NO loss                                                              0.43

!   Total N balance                                281.67              281.67
!   Balance                                                            -0.000

!===============================================================================

*DSSAT Cropping System Model Ver. 4.8.5.000 -release  FEB 02, 2026 11:47:14

*RUN   3        : 3                         WHAPS048 TUDU1701    3
 MODEL          : WHAPS048 - Wheat
 EXPERIMENT     : TUDU1701 WH
 DATA PATH      :
 TREATMENT  3   : 3                         WHAPS048
  


!SOIL INORGANIC N BALANCE                         Initial               Final
!                                                Year/Doy            Year/Doy
!                                                  16/298              17/219
!                                               (kg[N]/ha)          (kg[N]/ha)
! Soil N state variables:
!   Soil NO3                                        93.54               79.61
!   Soil NH4                                         9.05                4.20
!   Soil Urea                                        0.00                0.00
!   Soil N gases                                     0.00                0.08
!   Unreleased fert N                                                    0.00

! N additions:
!   Fertilizer N                                    40.00
!   Mineralized N                                   67.84

! N subtractions:
!   N immobilized                                                        1.92
!   N leached                                                           23.22
!   N loss to tile drainage                                              0.00
!   N Uptake From Soil                                                  98.57
!   NH3 loss                                                             2.57
!   N2O loss                                                             0.06
!   N2 loss                                                              0.06
!   NO loss                                                              0.16

!   Total N balance                                210.43              210.43
!   Balance                                                            -0.000

!===============================================================================

*DSSAT Cropping System Model Ver. 4.8.5.000 -release  FEB 02, 2026 11:47:14

*RUN   4        : 4                         WHAPS048 TUDU1701    4
 MODEL          : WHAPS048 - Wheat
 EXPERIMENT     : TUDU1701 WH
 DATA PATH      :
 TREATMENT  4   : 4                         WHAPS048
  


!SOIL INORGANIC N BALANCE                         Initial               Final
!                                                Year/Doy            Year/Doy
!                                                  16/298              17/219
!                                               (kg[N]/ha)          (kg[N]/ha)
! Soil N state variables:
!   Soil NO3                                        93.54               58.13
!   Soil NH4                                         9.05                3.90
!   Soil Urea                                        0.00                0.00
!   Soil N gases                                     0.00                0.05
!   Unreleased fert N                                                    0.00

! N additions:
!   Fertilizer N                                   120.00
!   Mineralized N                                   59.15

! N subtractions:
!   N immobilized                                                        2.56
!   N leached                                                           20.53
!   N loss to tile drainage                                              0.00
!   N Uptake From Soil                                                 194.10
!   NH3 loss                                                             2.10
!   N2O loss                                                             0.07
!   N2 loss                                                              0.02
!   NO loss                                                              0.29

!   Total N balance                                281.74              281.74
!   Balance                                                             0.000

!===============================================================================

*DSSAT Cropping System Model Ver. 4.8.5.000 -release  FEB 02, 2026 11:47:14

*RUN   5        : 5                         WHAPS048 TUDU1701    5
 MODEL          : WHAPS048 - Wheat
 EXPERIMENT     : TUDU1701 WH
 DATA PATH      :
 TREATMENT  5   : 5                         WHAPS048
  


!SOIL INORGANIC N BALANCE                         Initial               Final
!                                                Year/Doy            Year/Doy
!                                                  16/298              17/219
!                                               (kg[N]/ha)          (kg[N]/ha)
! Soil N state variables:
!   Soil NO3                                        93.54               55.14
!   Soil NH4                                         9.05                3.83
!   Soil Urea                                        0.00                0.00
!   Soil N gases                                     0.00                0.04
!   Unreleased fert N                                                    0.00

! N additions:
!   Fertilizer N                                   120.00
!   Mineralized N                                   56.84

! N subtractions:
!   N immobilized                                                        2.61
!   N leached                                                           18.19
!   N loss to tile drainage                                              0.00
!   N Uptake From Soil                                                 197.92
!   NH3 loss                                                             1.05
!   N2O loss                                                             0.11
!   N2 loss                                                              0.02
!   NO loss                                                              0.53

!   Total N balance                                279.44              279.44
!   Balance                                                            -0.000

!===============================================================================

*DSSAT Cropping System Model Ver. 4.8.5.000 -release  FEB 02, 2026 11:47:15

*RUN   6        : 6                         WHAPS048 TUDU1701    6
 MODEL          : WHAPS048 - Wheat
 EXPERIMENT     : TUDU1701 WH
 DATA PATH      :
 TREATMENT  6   : 6                         WHAPS048
  


!SOIL INORGANIC N BALANCE                         Initial               Final
!                                                Year/Doy            Year/Doy
!                                                  16/298              17/219
!                                               (kg[N]/ha)          (kg[N]/ha)
! Soil N state variables:
!   Soil NO3                                        93.54               57.96
!   Soil NH4                                         9.05                3.90
!   Soil Urea                                        0.00                0.00
!   Soil N gases                                     0.00                0.05
!   Unreleased fert N                                                    0.00

! N additions:
!   Fertilizer N                                   120.00
!   Mineralized N                                   59.02

! N subtractions:
!   N immobilized                                                        2.56
!   N leached                                                           20.57
!   N loss to tile drainage                                              0.00
!   N Uptake From Soil                                                 192.33
!   NH3 loss                                                             3.74
!   N2O loss                                                             0.09
!   N2 loss                                                              0.02
!   NO loss                                                              0.40

!   Total N balance                                281.61              281.61
!   Balance                                                            -0.000

!===============================================================================

*DSSAT Cropping System Model Ver. 4.8.5.000 -release  FEB 02, 2026 11:47:15

*RUN   7        : 7                         WHAPS048 TUDU1701    7
 MODEL          : WHAPS048 - Wheat
 EXPERIMENT     : TUDU1701 WH
 DATA PATH      :
 TREATMENT  7   : 7                         WHAPS048
  


!SOIL INORGANIC N BALANCE                         Initial               Final
!                                                Year/Doy            Year/Doy
!                                                  16/298              17/219
!                                               (kg[N]/ha)          (kg[N]/ha)
! Soil N state variables:
!   Soil NO3                                        93.54               55.45
!   Soil NH4                                         9.05                3.85
!   Soil Urea                                        0.00                0.00
!   Soil N gases                                     0.00                0.04
!   Unreleased fert N                                                    0.00

! N additions:
!   Fertilizer N                                   120.00
!   Mineralized N                                   56.46

! N subtractions:
!   N immobilized                                                        2.61
!   N leached                                                           18.15
!   N loss to tile drainage                                              0.00
!   N Uptake From Soil                                                 197.37
!   NH3 loss                                                             1.23
!   N2O loss                                                             0.07
!   N2 loss                                                              0.02
!   NO loss                                                              0.25

!   Total N balance                                279.05              279.05
!   Balance                                                             0.000

!===============================================================================

*DSSAT Cropping System Model Ver. 4.8.5.000 -release  FEB 02, 2026 11:47:15

*RUN   8        : 8                         WHAPS048 TUDU1701    8
 MODEL          : WHAPS048 - Wheat
 EXPERIMENT     : TUDU1701 WH
 DATA PATH      :
 TREATMENT  8   : 8                         WHAPS048
  


!SOIL INORGANIC N BALANCE                         Initial               Final
!                                                Year/Doy            Year/Doy
!                                                  16/298              17/219
!                                               (kg[N]/ha)          (kg[N]/ha)
! Soil N state variables:
!   Soil NO3                                        93.54               57.76
!   Soil NH4                                         9.05                3.84
!   Soil Urea                                        0.00                0.00
!   Soil N gases                                     0.00                0.04
!   Unreleased fert N                                                    0.00

! N additions:
!   Fertilizer N                                   180.00
!   Mineralized N                                   56.12

! N subtractions:
!   N immobilized                                                        2.65
!   N leached                                                           16.08
!   N loss to tile drainage                                              0.00
!   N Uptake From Soil                                                 254.42
!   NH3 loss                                                             3.01
!   N2O loss                                                             0.16
!   N2 loss                                                              0.02
!   NO loss                                                              0.73

!   Total N balance                                338.71              338.71
!   Balance                                                             0.000

!===============================================================================

*DSSAT Cropping System Model Ver. 4.8.5.000 -release  FEB 02, 2026 11:47:15

*RUN   9        : 9                         WHAPS048 TUDU1701    9
 MODEL          : WHAPS048 - Wheat
 EXPERIMENT     : TUDU1701 WH
 DATA PATH      :
 TREATMENT  9   : 9                         WHAPS048
  


!SOIL INORGANIC N BALANCE                         Initial               Final
!                                                Year/Doy            Year/Doy
!                                                  16/298              17/219
!                                               (kg[N]/ha)          (kg[N]/ha)
! Soil N state variables:
!   Soil NO3                                        93.54               57.95
!   Soil NH4                                         9.05                3.86
!   Soil Urea                                        0.00                0.00
!   Soil N gases                                     0.00                0.04
!   Unreleased fert N                                                    0.00

! N additions:
!   Fertilizer N                                   180.00
!   Mineralized N                                   56.24

! N subtractions:
!   N immobilized                                                        2.65
!   N leached                                                           16.04
!   N loss to tile drainage                                              0.00
!   N Uptake From Soil                                                 257.57
!   NH3 loss                                                             0.00
!   N2O loss                                                             0.13
!   N2 loss                                                              0.02
!   NO loss                                                              0.56

!   Total N balance                                338.83              338.83
!   Balance                                                             0.000

!===============================================================================

*DSSAT Cropping System Model Ver. 4.8.5.000 -release  FEB 02, 2026 11:47:15

*RUN  10        : 10                        WHAPS048 TUDU1701   10
 MODEL          : WHAPS048 - Wheat
 EXPERIMENT     : TUDU1701 WH
 DATA PATH      :
 TREATMENT 10   : 10                        WHAPS048
  


!SOIL INORGANIC N BALANCE                         Initial               Final
!                                                Year/Doy            Year/Doy
!                                                  16/298              17/219
!                                               (kg[N]/ha)          (kg[N]/ha)
! Soil N state variables:
!   Soil NO3                                        93.54               99.32
!   Soil NH4                                         9.05                4.18
!   Soil Urea                                        0.00                0.00
!   Soil N gases                                     0.00                0.10
!   Unreleased fert N                                                    0.00

! N additions:
!   Fertilizer N                                    60.00
!   Mineralized N                                   67.97

! N subtractions:
!   N immobilized                                                        1.92
!   N leached                                                           23.22
!   N loss to tile drainage                                              0.00
!   N Uptake From Soil                                                  98.66
!   NH3 loss                                                             2.74
!   N2O loss                                                             0.09
!   N2 loss                                                              0.11
!   NO loss                                                              0.23

!   Total N balance                                230.57              230.57
!   Balance                                                             0.000

!===============================================================================

*DSSAT Cropping System Model Ver. 4.8.5.000 -release  FEB 02, 2026 11:47:15

*RUN  11        : 11                        WHAPS048 TUDU1701   11
 MODEL          : WHAPS048 - Wheat
 EXPERIMENT     : TUDU1701 WH
 DATA PATH      :
 TREATMENT 11   : 11                        WHAPS048
  


!SOIL INORGANIC N BALANCE                         Initial               Final
!                                                Year/Doy            Year/Doy
!                                                  16/298              17/219
!                                               (kg[N]/ha)          (kg[N]/ha)
! Soil N state variables:
!   Soil NO3                                        93.54               57.76
!   Soil NH4                                         9.05                3.84
!   Soil Urea                                        0.00                0.00
!   Soil N gases                                     0.00                0.04
!   Unreleased fert N                                                    0.00

! N additions:
!   Fertilizer N                                   180.00
!   Mineralized N                                   56.12

! N subtractions:
!   N immobilized                                                        2.65
!   N leached                                                           16.08
!   N loss to tile drainage                                              0.00
!   N Uptake From Soil                                                 254.42
!   NH3 loss                                                             3.01
!   N2O loss                                                             0.16
!   N2 loss                                                              0.02
!   NO loss                                                              0.73

!   Total N balance                                338.71              338.71
!   Balance                                                             0.000

!===============================================================================

*DSSAT Cropping System Model Ver. 4.8.5.000 -release  FEB 02, 2026 11:47:16

*RUN  12        : 12                        WHAPS048 TUDU1701   12
 MODEL          : WHAPS048 - Wheat
 EXPERIMENT     : TUDU1701 WH
 DATA PATH      :
 TREATMENT 12   : 12                        WHAPS048
  


!SOIL INORGANIC N BALANCE                         Initial               Final
!                                                Year/Doy            Year/Doy
!                                                  16/298              17/219
!                                               (kg[N]/ha)          (kg[N]/ha)
! Soil N state variables:
!   Soil NO3                                        93.54               57.82
!   Soil NH4                                         9.05                3.83
!   Soil Urea                                        0.00                0.00
!   Soil N gases                                     0.00                0.04
!   Unreleased fert N                                                    0.00

! N additions:
!   Fertilizer N                                   180.00
!   Mineralized N                                   56.17

! N subtractions:
!   N immobilized                                                        2.65
!   N leached                                                           16.08
!   N loss to tile drainage                                              0.00
!   N Uptake From Soil                                                 255.85
!   NH3 loss                                                             1.67
!   N2O loss                                                             0.14
!   N2 loss                                                              0.02
!   NO loss                                                              0.65

!   Total N balance                                338.76              338.76
!   Balance                                                             0.000

!===============================================================================

*DSSAT Cropping System Model Ver. 4.8.5.000 -release  FEB 02, 2026 11:47:16

*RUN  13        : 13                        WHAPS048 TUDU1701   13
 MODEL          : WHAPS048 - Wheat
 EXPERIMENT     : TUDU1701 WH
 DATA PATH      :
 TREATMENT 13   : 13                        WHAPS048
  


!SOIL INORGANIC N BALANCE                         Initial               Final
!                                                Year/Doy            Year/Doy
!                                                  16/298              17/219
!                                               (kg[N]/ha)          (kg[N]/ha)
! Soil N state variables:
!   Soil NO3                                        93.54               57.84
!   Soil NH4                                         9.05                3.83
!   Soil Urea                                        0.00                0.00
!   Soil N gases                                     0.00                0.04
!   Unreleased fert N                                                    0.00

! N additions:
!   Fertilizer N                                   180.00
!   Mineralized N                                   56.10

! N subtractions:
!   N immobilized                                                        2.65
!   N leached                                                           16.14
!   N loss to tile drainage                                              0.00
!   N Uptake From Soil                                                 254.18
!   NH3 loss                                                             3.33
!   N2O loss                                                             0.12
!   N2 loss                                                              0.02
!   NO loss                                                              0.54

!   Total N balance                                338.69              338.69
!   Balance                                                            -0.000

!===============================================================================

*DSSAT Cropping System Model Ver. 4.8.5.000 -release  FEB 02, 2026 11:47:16

*RUN  14        : 14                        WHAPS048 TUDU1701   14
 MODEL          : WHAPS048 - Wheat
 EXPERIMENT     : TUDU1701 WH
 DATA PATH      :
 TREATMENT 14   : 14                        WHAPS048
  


!SOIL INORGANIC N BALANCE                         Initial               Final
!                                                Year/Doy            Year/Doy
!                                                  16/298              17/219
!                                               (kg[N]/ha)          (kg[N]/ha)
! Soil N state variables:
!   Soil NO3                                        93.54               63.15
!   Soil NH4                                         9.05                3.87
!   Soil Urea                                        0.00                0.00
!   Soil N gases                                     0.00                0.05
!   Unreleased fert N                                                    0.00

! N additions:
!   Fertilizer N                                   180.00
!   Mineralized N                                   58.43

! N subtractions:
!   N immobilized                                                        2.61
!   N leached                                                           18.15
!   N loss to tile drainage                                              0.00
!   N Uptake From Soil                                                 250.77
!   NH3 loss                                                             1.91
!   N2O loss                                                             0.09
!   N2 loss                                                              0.02
!   NO loss                                                              0.41

!   Total N balance                                341.02              341.02
!   Balance                                                             0.000

!===============================================================================

*DSSAT Cropping System Model Ver. 4.8.5.000 -release  FEB 02, 2026 11:47:16

*RUN  15        : 15                        WHAPS048 TUDU1701   15
 MODEL          : WHAPS048 - Wheat
 EXPERIMENT     : TUDU1701 WH
 DATA PATH      :
 TREATMENT 15   : 15                        WHAPS048
  


!SOIL INORGANIC N BALANCE                         Initial               Final
!                                                Year/Doy            Year/Doy
!                                                  16/298              17/219
!                                               (kg[N]/ha)          (kg[N]/ha)
! Soil N state variables:
!   Soil NO3                                        93.54               59.26
!   Soil NH4                                         9.05                4.71
!   Soil Urea                                        0.00                0.00
!   Soil N gases                                     0.00                0.07
!   Unreleased fert N                                                    0.00

! N additions:
!   Fertilizer N                                     0.00
!   Mineralized N                                   65.24

! N subtractions:
!   N immobilized                                                        1.87
!   N leached                                                           23.22
!   N loss to tile drainage                                              0.00
!   N Uptake From Soil                                                  78.59
!   NH3 loss                                                             0.00
!   N2O loss                                                             0.03
!   N2 loss                                                              0.02
!   NO loss                                                              0.07

!   Total N balance                                167.83              167.83
!   Balance                                                            -0.000
