*Soil Organic Matter daily output file

*DSSAT Cropping System Model Ver. 4.8.5.000 -release  FEB 02, 2026 11:47:14

*RUN   1        : 1                         WHAPS048 TUDU1701    1
 MODEL          : WHAPS048 - Wheat
 EXPERIMENT     : TUDU1701 WH
 DATA PATH      :
 TREATMENT  1   : 1                         WHAPS048
  
@YEAR DOY   DAS    OMAC    SCDD    SOCD    SC0D    SCTD   SOMCT    LCTD    ONAC    SNDD    SOND    SN0D    SNTD   SOMNT    LNTD
   16 297     0       0   31829  314106       0  314106  310026  4080.0    0.00  1073.9 16964.5    0.00 16964.5 16872.7   91.80
   16 298     1       0   31422  314066       0  314066  310028  4037.5    0.00  1058.2 16964.5    0.00 16964.5 16872.5   92.01
   16 299     2       0   31432  314025       0  314025  310031  3994.8    0.00  1058.5 16964.6    0.00 16964.6 16872.4   92.20
   16 300     3       0   31436  313986       0  313986  310033  3952.6    0.00  1058.6 16964.6    0.00 16964.6 16872.3   92.36
   16 301     4       0   31439  313951       0  313951  310035  3915.7    0.00  1058.7 16964.6    0.00 16964.6 16872.1   92.48
   16 302     5       0   31441  313924       0  313924  310037  3886.7    0.00  1058.7 16964.6    0.00 16964.6 16872.0   92.56
   16 303     6       0   31443  313904       0  313904  310037  3867.0    0.00  1058.8 16964.5    0.00 16964.5 16871.9   92.60
   16 304     7       0   31444  313891       0  313891  310037  3854.2    0.00  1058.8 16964.4    0.00 16964.4 16871.8   92.63
   16 305     8       0   31444  313884       0  313884  310037  3847.7    0.00  1058.8 16964.4    0.00 16964.4 16871.7   92.63
   16 306     9       0   31445  313880       0  313880  310036  3844.2    0.00  1058.8 16964.3    0.00 16964.3 16871.6   92.64
   16 307    10       0   31445  313878       0  313878  310035  3843.0    0.00  1058.8 16964.2    0.00 16964.2 16871.5   92.64
   16 308    11       0   31445  313875       0  313875  310034  3841.7    0.00  1058.8 16964.1    0.00 16964.1 16871.5   92.64
   16 309    12       0   31445  313874       0  313874  310033  3840.9    0.00  1058.8 16964.0    0.00 16964.0 16871.4   92.63
   16 310    13       0   31507  313872       0  313872  310032  3840.2    0.00  1061.2 16964.0    0.00 16964.0 16871.3   92.63
   16 311    14       0   31550  313871       0  313871  310031  3839.4    0.00  1062.8 16963.9    0.00 16963.9 16871.3   92.63
   16 312    15       0   31550  313869       0  313869  310030  3838.6    0.00  1062.8 16963.8    0.00 16963.8 16871.2   92.63
   16 313    16       0   31550  313868       0  313868  310030  3838.0    0.00  1062.8 16963.8    0.00 16963.8 16871.1   92.63
   16 314    17       0   31565  313867       0  313867  310029  3837.6    0.00  1063.4 16963.7    0.00 16963.7 16871.1   92.63
   16 315    18       0   31597  313866       0  313866  310029  3837.2    0.00  1064.6 16963.7    0.00 16963.7 16871.0   92.63
   16 316    19       0   31617  313866       0  313866  310029  3837.0    0.00  1065.4 16963.6    0.00 16963.6 16871.0   92.63
   16 317    20       0   31617  313865       0  313865  310028  3836.8    0.00  1065.4 16963.6    0.00 16963.6 16871.0   92.62
   16 318    21       0   31617  313865       0  313865  310028  3836.5    0.00  1065.4 16963.6    0.00 16963.6 16870.9   92.62
   16 319    22       0   31617  313864       0  313864  310028  3836.3    0.00  1065.4 16963.5    0.00 16963.5 16870.9   92.62
   16 320    23       0   31636  313864       0  313864  310028  3836.2    0.00  1066.1 16963.5    0.00 16963.5 16870.9   92.62
   16 321    24       0   31664  313864       0  313864  310027  3836.1    0.00  1067.2 16963.5    0.00 16963.5 16870.9   92.62
   16 322    25       0   31664  313863       0  313863  310027  3835.9    0.00  1067.2 16963.5    0.00 16963.5 16870.9   92.62
   16 323    26       0   31682  313862       0  313862  310027  3835.6    0.00  1067.9 16963.4    0.00 16963.4 16870.8   92.62
   16 324    27       0   31701  313861       0  313861  310026  3834.7    0.00  1068.6 16963.4    0.00 16963.4 16870.7   92.62
   16 325    28       0   31701  313857       0  313857  310025  3832.4    0.00  1068.6 16963.3    0.00 16963.3 16870.7   92.62
   16 326    29       0   31701  313852       0  313852  310024  3827.6    0.00  1068.6 16963.2    0.00 16963.2 16870.6   92.62
   16 327    30       0   31702  313846       0  313846  310024  3822.1    0.00  1068.6 16963.1    0.00 16963.1 16870.5   92.62
   16 328    31       0   31702  313839       0  313839  310023  3816.5    0.00  1068.6 16963.0    0.00 16963.0 16870.4   92.62
   16 329    32       0   31702  313835       0  313835  310022  3813.3    0.00  1068.7 16962.9    0.00 16962.9 16870.3   92.62
   16 330    33       0   31703  313830       0  313830  310021  3808.7    0.00  1068.7 16962.8    0.00 16962.8 16870.2   92.62
   16 331    34       0   31703  313824       0  313824  310021  3803.3    0.00  1068.7 16962.7    0.00 16962.7 16870.1   92.62
   16 332    35       0   31703  313819       0  313819  310020  3799.3    0.00  1068.7 16962.6    0.00 16962.6 16870.0   92.62
   16 333    36       0   31703  313817       0  313817  310019  3798.4    0.00  1068.7 16962.6    0.00 16962.6 16869.9   92.62
   16 334    37       0   31703  313816       0  313816  310018  3797.9    0.00  1068.7 16962.5    0.00 16962.5 16869.9   92.61
   16 335    38       0   31703  313816       0  313816  310018  3797.8    0.00  1068.7 16962.5    0.00 16962.5 16869.9   92.61
   16 336    39       0   31703  313816       0  313816  310018  3797.8    0.00  1068.7 16962.5    0.00 16962.5 16869.9   92.61
   16 337    40       0   31706  313816       0  313816  310018  3797.7    0.00  1068.8 16962.5    0.00 16962.5 16869.9   92.61
   16 338    41       0   31706  313816       0  313816  310018  3797.7    0.00  1068.8 16962.5    0.00 16962.5 16869.9   92.61
   16 339    42       0   31706  313816       0  313816  310018  3797.7    0.00  1068.8 16962.5    0.00 16962.5 16869.8   92.61
   16 340    43       0   31706  313815       0  313815  310018  3797.7    0.00  1068.8 16962.5    0.00 16962.5 16869.8   92.61
   16 341    44       0   31706  313815       0  313815  310018  3797.7    0.00  1068.8 16962.5    0.00 16962.5 16869.8   92.61
   16 342    45       0   31706  313815       0  313815  310018  3797.7    0.00  1068.8 16962.5    0.00 16962.5 16869.8   92.61
   16 343    46       0   31706  313815       0  313815  310018  3797.7    0.00  1068.8 16962.5    0.00 16962.5 16869.8   92.61
   16 344    47       0   31706  313815       0  313815  310018  3797.7    0.00  1068.8 16962.5    0.00 16962.5 16869.8   92.61
   16 345    48       0   31706  313815       0  313815  310018  3797.7    0.00  1068.8 16962.5    0.00 16962.5 16869.8   92.61
   16 346    49       0   31708  313815       0  313815  310018  3797.7    0.00  1068.9 16962.5    0.00 16962.5 16869.8   92.61
   16 347    50       0   31708  313815       0  313815  310018  3797.7    0.00  1068.9 16962.4    0.00 16962.4 16869.8   92.61
   16 348    51       0   31708  313815       0  313815  310018  3797.6    0.00  1068.9 16962.4    0.00 16962.4 16869.8   92.61
   16 349    52       0   31708  313815       0  313815  310017  3797.6    0.00  1068.9 16962.4    0.00 16962.4 16869.8   92.61
   16 350    53       0   31708  313815       0  313815  310017  3797.5    0.00  1068.9 16962.4    0.00 16962.4 16869.8   92.61
   16 351    54       0   31708  313815       0  313815  310017  3797.4    0.00  1068.9 16962.4    0.00 16962.4 16869.8   92.61
   16 352    55       0   31708  313814       0  313814  310017  3797.3    0.00  1068.9 16962.4    0.00 16962.4 16869.8   92.61
   16 353    56       0   31708  313814       0  313814  310017  3797.3    0.00  1068.9 16962.4    0.00 16962.4 16869.8   92.61
   16 354    57       0   31708  313814       0  313814  310017  3797.3    0.00  1068.9 16962.4    0.00 16962.4 16869.8   92.61
   16 355    58       0   31708  313814       0  313814  310017  3797.3    0.00  1068.9 16962.4    0.00 16962.4 16869.7   92.61
   16 356    59       0   31708  313814       0  313814  310017  3797.2    0.00  1068.9 16962.4    0.00 16962.4 16869.7   92.61
   16 357    60       0   31708  313814       0  313814  310017  3797.2    0.00  1068.9 16962.4    0.00 16962.4 16869.7   92.61
   16 358    61       0   31708  313814       0  313814  310017  3797.2    0.00  1068.9 16962.4    0.00 16962.4 16869.7   92.61
   16 359    62       0   31708  313814       0  313814  310017  3797.2    0.00  1068.9 16962.4    0.00 16962.4 16869.7   92.61
   16 360    63       0   31708  313814       0  313814  310017  3797.2    0.00  1068.9 16962.3    0.00 16962.3 16869.7   92.61
   16 361    64       0   31711  313814       0  313814  310017  3797.2    0.00  1069.0 16962.3    0.00 16962.3 16869.7   92.61
   16 362    65       0   31711  313814       0  313814  310016  3797.1    0.00  1069.0 16962.3    0.00 16962.3 16869.7   92.60
   16 363    66       0   31711  313813       0  313813  310016  3796.9    0.00  1069.0 16962.3    0.00 16962.3 16869.7   92.60
   16 364    67       0   31711  313813       0  313813  310016  3796.7    0.00  1069.0 16962.3    0.00 16962.3 16869.7   92.60
   16 365    68       0   31711  313812       0  313812  310016  3796.5    0.00  1069.0 16962.2    0.00 16962.2 16869.6   92.60
   16 366    69       0   31711  313812       0  313812  310016  3796.5    0.00  1069.0 16962.2    0.00 16962.2 16869.6   92.60
   17 001    70       0   31711  313812       0  313812  310015  3796.5    0.00  1069.0 16962.2    0.00 16962.2 16869.6   92.60
   17 002    71       0   31713  313812       0  313812  310015  3796.5    0.00  1069.1 16962.2    0.00 16962.2 16869.6   92.60
   17 003    72       0   31713  313812       0  313812  310015  3796.5    0.00  1069.1 16962.2    0.00 16962.2 16869.6   92.60
   17 004    73       0   31713  313812       0  313812  310015  3796.5    0.00  1069.1 16962.2    0.00 16962.2 16869.6   92.60
   17 005    74       0   31713  313812       0  313812  310015  3796.5    0.00  1069.1 16962.2    0.00 16962.2 16869.6   92.60
   17 006    75       0   31727  313812       0  313812  310015  3796.5    0.00  1069.6 16962.2    0.00 16962.2 16869.6   92.60
   17 007    76       0   31745  313812       0  313812  310015  3796.5    0.00  1070.3 16962.2    0.00 16962.2 16869.6   92.60
   17 008    77       0   31745  313812       0  313812  310015  3796.5    0.00  1070.3 16962.2    0.00 16962.2 16869.6   92.60
   17 009    78       0   31745  313812       0  313812  310015  3796.5    0.00  1070.3 16962.2    0.00 16962.2 16869.6   92.60
   17 010    79       0   31745  313812       0  313812  310015  3796.5    0.00  1070.3 16962.2    0.00 16962.2 16869.6   92.60
   17 011    80       0   31747  313812       0  313812  310015  3796.5    0.00  1070.3 16962.2    0.00 16962.2 16869.6   92.60
   17 012    81       0   31764  313812       0  313812  310015  3796.5    0.00  1071.0 16962.2    0.00 16962.2 16869.6   92.60
   17 013    82       0   31764  313812       0  313812  310015  3796.5    0.00  1071.0 16962.2    0.00 16962.2 16869.6   92.60
   17 014    83       0   31764  313812       0  313812  310015  3796.5    0.00  1071.0 16962.2    0.00 16962.2 16869.6   92.60
   17 015    84       0   31764  313812       0  313812  310015  3796.5    0.00  1071.0 16962.2    0.00 16962.2 16869.6   92.60
   17 016    85       0   31764  313812       0  313812  310015  3796.5    0.00  1071.0 16962.2    0.00 16962.2 16869.6   92.60
   17 017    86       0   31764  313812       0  313812  310015  3796.5    0.00  1071.0 16962.2    0.00 16962.2 16869.6   92.60
   17 018    87       0   31764  313812       0  313812  310015  3796.5    0.00  1071.0 16962.2    0.00 16962.2 16869.6   92.60
   17 019    88       0   31764  313812       0  313812  310015  3796.5    0.00  1071.0 16962.2    0.00 16962.2 16869.6   92.60
   17 020    89       0   31771  313812       0  313812  310015  3796.5    0.00  1071.3 16962.2    0.00 16962.2 16869.6   92.60
   17 021    90       0   31775  313812       0  313812  310015  3796.5    0.00  1071.4 16962.2    0.00 16962.2 16869.6   92.60
   17 022    91       0   31781  313812       0  313812  310015  3796.5    0.00  1071.7 16962.2    0.00 16962.2 16869.6   92.60
   17 023    92       0   31783  313812       0  313812  310015  3796.5    0.00  1071.7 16962.2    0.00 16962.2 16869.6   92.60
   17 024    93       0   31784  313812       0  313812  310015  3796.5    0.00  1071.8 16962.2    0.00 16962.2 16869.6   92.60
   17 025    94       0   31785  313812       0  313812  310015  3796.5    0.00  1071.8 16962.2    0.00 16962.2 16869.6   92.60
   17 026    95       0   31785  313812       0  313812  310015  3796.5    0.00  1071.8 16962.2    0.00 16962.2 16869.6   92.60
   17 027    96       0   31794  313812       0  313812  310015  3796.5    0.00  1072.1 16962.2    0.00 16962.2 16869.6   92.60
   17 028    97       0   31795  313812       0  313812  310015  3796.5    0.00  1072.2 16962.2    0.00 16962.2 16869.6   92.60
   17 029    98       0   31799  313812       0  313812  310015  3796.5    0.00  1072.3 16962.2    0.00 16962.2 16869.6   92.60
   17 030    99       0   31799  313812       0  313812  310015  3796.5    0.00  1072.4 16962.2    0.00 16962.2 16869.6   92.60
   17 031   100       0   31804  313812       0  313812  310015  3796.5    0.00  1072.5 16962.2    0.00 16962.2 16869.6   92.60
   17 032   101       0   31804  313812       0  313812  310015  3796.5    0.00  1072.5 16962.2    0.00 16962.2 16869.6   92.60
   17 033   102       0   31804  313812       0  313812  310015  3796.5    0.00  1072.5 16962.2    0.00 16962.2 16869.6   92.60
   17 034   103       0   31804  313812       0  313812  310015  3796.5    0.00  1072.5 16962.2    0.00 16962.2 16869.6   92.60
   17 035   104       0   31804  313812       0  313812  310015  3796.5    0.00  1072.5 16962.2    0.00 16962.2 16869.6   92.60
   17 036   105       0   31804  313812       0  313812  310015  3796.5    0.00  1072.5 16962.2    0.00 16962.2 16869.6   92.60
   17 037   106       0   31804  313812       0  313812  310015  3796.5    0.00  1072.5 16962.2    0.00 16962.2 16869.6   92.60
   17 038   107       0   31804  313812       0  313812  310015  3796.5    0.00  1072.5 16962.2    0.00 16962.2 16869.6   92.60
   17 039   108       0   31804  313812       0  313812  310015  3796.5    0.00  1072.5 16962.2    0.00 16962.2 16869.6   92.60
   17 040   109       0   31804  313812       0  313812  310015  3796.5    0.00  1072.5 16962.2    0.00 16962.2 16869.6   92.60
   17 041   110       0   31804  313812       0  313812  310015  3796.5    0.00  1072.5 16962.2    0.00 16962.2 16869.6   92.60
   17 042   111       0   31804  313812       0  313812  310015  3796.5    0.00  1072.5 16962.2    0.00 16962.2 16869.6   92.60
   17 043   112       0   31804  313812       0  313812  310015  3796.5    0.00  1072.5 16962.2    0.00 16962.2 16869.6   92.60
   17 044   113       0   31804  313812       0  313812  310015  3796.5    0.00  1072.5 16962.2    0.00 16962.2 16869.6   92.60
   17 045   114       0   31804  313812       0  313812  310015  3796.5    0.00  1072.5 16962.2    0.00 16962.2 16869.6   92.60
   17 046   115       0   31804  313812       0  313812  310015  3796.5    0.00  1072.5 16962.2    0.00 16962.2 16869.6   92.60
   17 047   116       0   31805  313812       0  313812  310015  3796.5    0.00  1072.6 16962.2    0.00 16962.2 16869.6   92.60
   17 048   117       0   31852  313812       0  313812  310015  3796.5    0.00  1074.4 16962.2    0.00 16962.2 16869.6   92.60
   17 049   118       0   31852  313812       0  313812  310015  3796.5    0.00  1074.4 16962.2    0.00 16962.2 16869.6   92.60
   17 050   119       0   31852  313812       0  313812  310015  3796.5    0.00  1074.4 16962.2    0.00 16962.2 16869.6   92.60
   17 051   120       0   31852  313812       0  313812  310015  3796.5    0.00  1074.4 16962.2    0.00 16962.2 16869.6   92.60
   17 052   121       0   31852  313812       0  313812  310015  3796.5    0.00  1074.4 16962.2    0.00 16962.2 16869.6   92.60
   17 053   122       0   31852  313812       0  313812  310015  3796.5    0.00  1074.4 16962.2    0.00 16962.2 16869.6   92.60
   17 054   123       0   31852  313812       0  313812  310015  3796.3    0.00  1074.4 16962.2    0.00 16962.2 16869.6   92.60
   17 055   124       0   31852  313802       0  313802  310016  3785.7    0.00  1074.4 16962.2    0.00 16962.2 16869.6   92.61
   17 056   125       0   31854  313787       0  313787  310017  3769.8    0.00  1074.4 16962.2    0.00 16962.2 16869.5   92.63
   17 057   126       0   31855  313777       0  313777  310018  3758.3    0.00  1074.4 16962.2    0.00 16962.2 16869.5   92.64
   17 058   127       0   31855  313770       0  313770  310019  3751.7    0.00  1074.4 16962.1    0.00 16962.1 16869.5   92.64
   17 059   128       0   31855  313769       0  313769  310018  3750.8    0.00  1074.4 16962.1    0.00 16962.1 16869.5   92.64
   17 060   129       0   31855  313769       0  313769  310018  3750.8    0.00  1074.4 16962.1    0.00 16962.1 16869.5   92.64
   17 061   130       0   31855  313769       0  313769  310018  3750.8    0.00  1074.4 16962.1    0.00 16962.1 16869.5   92.64
   17 062   131       0   31855  313769       0  313769  310018  3750.8    0.00  1074.4 16962.1    0.00 16962.1 16869.5   92.64
   17 063   132       0   31855  313769       0  313769  310018  3750.8    0.00  1074.4 16962.1    0.00 16962.1 16869.5   92.64
   17 064   133       0   31855  313769       0  313769  310018  3750.7    0.00  1074.4 16962.1    0.00 16962.1 16869.4   92.64
   17 065   134       0   31855  313768       0  313768  310018  3750.2    0.00  1074.4 16962.1    0.00 16962.1 16869.4   92.64
   17 066   135       0   31856  313766       0  313766  310018  3748.3    0.00  1074.5 16962.0    0.00 16962.0 16869.4   92.64
   17 067   136       0   31856  313766       0  313766  310018  3748.1    0.00  1074.5 16962.0    0.00 16962.0 16869.4   92.63
   17 068   137       0   31856  313765       0  313765  310018  3747.3    0.00  1074.5 16962.0    0.00 16962.0 16869.4   92.63
   17 069   138       0   31856  313765       0  313765  310018  3747.1    0.00  1074.5 16962.0    0.00 16962.0 16869.4   92.63
   17 070   139       0   31856  313765       0  313765  310017  3747.1    0.00  1074.5 16962.0    0.00 16962.0 16869.4   92.63
   17 071   140       0   31856  313764       0  313764  310017  3747.1    0.00  1074.5 16962.0    0.00 16962.0 16869.4   92.63
   17 072   141       0   31856  313764       0  313764  310017  3747.0    0.00  1074.5 16962.0    0.00 16962.0 16869.4   92.63
   17 073   142       0   31856  313764       0  313764  310017  3747.0    0.00  1074.5 16962.0    0.00 16962.0 16869.3   92.63
   17 074   143       0   31856  313764       0  313764  310017  3747.0    0.00  1074.5 16962.0    0.00 16962.0 16869.3   92.63
   17 075   144       0   31856  313764       0  313764  310017  3747.0    0.00  1074.5 16962.0    0.00 16962.0 16869.3   92.63
   17 076   145       0   31856  313763       0  313763  310017  3746.1    0.00  1074.5 16962.0    0.00 16962.0 16869.3   92.63
   17 077   146       0   31856  313758       0  313758  310018  3740.2    0.00  1074.5 16961.9    0.00 16961.9 16869.3   92.63
   17 078   147       0   31857  313749       0  313749  310018  3730.4    0.00  1074.5 16961.9    0.00 16961.9 16869.3   92.64
   17 079   148       0   31859  313734       0  313734  310019  3714.7    0.00  1074.5 16961.9    0.00 16961.9 16869.3   92.64
   17 080   149       0   31860  313717       0  313717  310021  3696.3    0.00  1074.6 16961.9    0.00 16961.9 16869.2   92.64
   17 081   150       0   31862  313698       0  313698  310022  3675.9    0.00  1074.6 16961.8    0.00 16961.8 16869.2   92.64
   17 082   151       0   31864  313682       0  313682  310023  3659.0    0.00  1074.6 16961.8    0.00 16961.8 16869.1   92.63
   17 083   152       0   31865  313666       0  313666  310024  3642.0    0.00  1074.7 16961.7    0.00 16961.7 16869.1   92.62
   17 084   153       0   31866  313654       0  313654  310024  3629.9    0.00  1074.7 16961.7    0.00 16961.7 16869.1   92.61
   17 085   154       0   31867  313645       0  313645  310025  3620.5    0.00  1074.7 16961.6    0.00 16961.6 16869.0   92.59
   17 086   155       0   31867  313640       0  313640  310025  3614.9    0.00  1074.7 16961.6    0.00 16961.6 16869.0   92.59
   17 087   156       0   31868  313633       0  313633  310025  3608.2    0.00  1074.7 16961.6    0.00 16961.6 16869.0   92.58
   17 088   157       0   31869  313627       0  313627  310025  3601.9    0.00  1074.8 16961.5    0.00 16961.5 16869.0   92.57
   17 089   158       0   31870  313618       0  313618  310025  3592.6    0.00  1074.8 16961.5    0.00 16961.5 16868.9   92.55
   17 090   159       0   31870  313608       0  313608  310025  3582.6    0.00  1074.8 16961.4    0.00 16961.4 16868.8   92.53
   17 091   160       0   31872  313594       0  313594  310025  3569.3    0.00  1074.8 16961.2    0.00 16961.2 16868.8   92.50
   17 092   161       0   31873  313579       0  313579  310024  3555.5    0.00  1074.9 16961.1    0.00 16961.1 16868.6   92.46
   17 093   162       0   31874  313564       0  313564  310022  3541.7    0.00  1074.9 16960.9    0.00 16960.9 16868.5   92.42
   17 094   163       0   31875  313549       0  313549  310021  3528.0    0.00  1074.9 16960.7    0.00 16960.7 16868.3   92.38
   17 095   164       0   31876  313535       0  313535  310019  3515.9    0.00  1074.9 16960.5    0.00 16960.5 16868.2   92.34
   17 096   165       0   31877  313524       0  313524  310018  3505.6    0.00  1074.9 16960.4    0.00 16960.4 16868.1   92.30
   17 097   166       0   31877  313516       0  313516  310018  3498.4    0.00  1075.0 16960.3    0.00 16960.3 16868.0   92.28
   17 098   167       0   31878  313510       0  313510  310017  3492.9    0.00  1075.0 16960.2    0.00 16960.2 16868.0   92.26
   17 099   168       0   31878  313504       0  313504  310016  3488.0    0.00  1075.0 16960.1    0.00 16960.1 16867.9   92.24
   17 100   169       0   31879  313498       0  313498  310016  3482.0    0.00  1075.0 16960.0    0.00 16960.0 16867.8   92.22
   17 101   170       0   31879  313489       0  313489  310014  3475.0    0.00  1075.0 16959.9    0.00 16959.9 16867.7   92.19
   17 102   171       0   31879  313481       0  313481  310013  3468.5    0.00  1075.0 16959.7    0.00 16959.7 16867.6   92.16
   17 103   172       0   31880  313473       0  313473  310011  3462.4    0.00  1075.0 16959.6    0.00 16959.6 16867.5   92.13
   17 104   173       0   31880  313466       0  313466  310009  3456.9    0.00  1075.0 16959.4    0.00 16959.4 16867.3   92.10
   17 105   174       0   31881  313461       0  313461  310008  3452.6    0.00  1075.0 16959.3    0.00 16959.3 16867.2   92.07
   17 106   175       0   31881  313456       0  313456  310007  3449.1    0.00  1075.0 16959.2    0.00 16959.2 16867.2   92.05
   17 107   176       0   31881  313451       0  313451  310006  3445.1    0.00  1075.0 16959.1    0.00 16959.1 16867.1   92.03
   17 108   177       0   31881  313445       0  313445  310005  3439.9    0.00  1075.1 16959.0    0.00 16959.0 16867.0   92.01
   17 109   178       0   31882  313442       0  313442  310005  3436.8    0.00  1075.1 16959.0    0.00 16959.0 16867.0   92.00
   17 110   179       0   31882  313441       0  313441  310005  3435.7    0.00  1075.1 16959.0    0.00 16959.0 16867.0   91.99
   17 111   180       0   31882  313441       0  313441  310005  3435.7    0.00  1075.1 16959.0    0.00 16959.0 16867.0   91.99
   17 112   181       0   31882  313441       0  313441  310005  3435.7    0.00  1075.1 16959.0    0.00 16959.0 16867.0   91.99
   17 113   182       0   31882  313441       0  313441  310005  3435.7    0.00  1075.1 16959.0    0.00 16959.0 16867.0   91.99
   17 114   183       0   31882  313441       0  313441  310005  3435.7    0.00  1075.1 16959.0    0.00 16959.0 16867.0   91.99
   17 115   184       0   31882  313441       0  313441  310005  3435.7    0.00  1075.1 16959.0    0.00 16959.0 16867.0   91.99
   17 116   185       0   31882  313440       0  313440  310005  3434.8    0.00  1075.1 16959.0    0.00 16959.0 16867.0   91.99
   17 117   186       0   31882  313440       0  313440  310005  3434.8    0.00  1075.1 16959.0    0.00 16959.0 16867.0   91.99
   17 118   187       0   31882  313440       0  313440  310005  3434.8    0.00  1075.1 16959.0    0.00 16959.0 16867.0   91.99
   17 119   188       0   31882  313440       0  313440  310005  3434.8    0.00  1075.1 16959.0    0.00 16959.0 16867.0   91.99
   17 120   189       0   31882  313440       0  313440  310005  3434.8    0.00  1075.1 16959.0    0.00 16959.0 16867.0   91.99
   17 121   190       0   31882  313440       0  313440  310005  3434.8    0.00  1075.1 16959.0    0.00 16959.0 16867.0   91.99
   17 122   191       0   31882  313439       0  313439  310005  3434.7    0.00  1075.1 16959.0    0.00 16959.0 16867.0   91.99
   17 123   192       0   31882  313438       0  313438  310004  3434.0    0.00  1075.1 16958.9    0.00 16958.9 16866.9   91.98
   17 124   193       0   31881  313434       0  313434  310002  3432.3    0.00  1075.0 16958.8    0.00 16958.8 16866.8   91.97
   17 125   194       0   31881  313430       0  313430  310000  3430.1    0.00  1075.0 16958.6    0.00 16958.6 16866.7   91.95
   17 126   195       0   31881  313425       0  313425  309997  3427.3    0.00  1075.0 16958.5    0.00 16958.5 16866.6   91.93
   17 127   196       0   31881  313418       0  313418  309994  3424.1    0.00  1075.0 16958.3    0.00 16958.3 16866.4   91.90
   17 128   197       0   31880  313411       0  313411  309991  3420.4    0.00  1075.0 16958.1    0.00 16958.1 16866.2   91.87
   17 129   198       0   31880  313405       0  313405  309988  3416.4    0.00  1075.0 16957.9    0.00 16957.9 16866.1   91.84
   17 130   199       0   31880  313398       0  313398  309986  3412.0    0.00  1075.0 16957.7    0.00 16957.7 16865.9   91.81
   17 131   200       0   31880  313391       0  313391  309983  3407.9    0.00  1075.0 16957.6    0.00 16957.6 16865.8   91.78
   17 132   201       0   31880  313385       0  313385  309981  3404.5    0.00  1075.0 16957.4    0.00 16957.4 16865.6   91.76
   17 133   202       0   31879  313379       0  313379  309978  3401.0    0.00  1075.0 16957.2    0.00 16957.2 16865.5   91.73
   17 134   203       0   31879  313371       0  313371  309974  3397.1    0.00  1075.0 16957.0    0.00 16957.0 16865.3   91.69
   17 135   204       0   31878  313362       0  313362  309969  3392.3    0.00  1074.9 16956.6    0.00 16956.6 16865.0   91.64
   17 136   205       0   31878  313350       0  313350  309964  3386.0    0.00  1074.9 16956.3    0.00 16956.3 16864.7   91.59
   17 137   206       0   31878  313338       0  313338  309959  3378.6    0.00  1074.9 16956.0    0.00 16956.0 16864.4   91.53
   17 138   207       0   31877  313325       0  313325  309954  3371.4    0.00  1074.9 16955.6    0.00 16955.6 16864.1   91.47
   17 139   208       0   31877  313313       0  313313  309949  3364.6    0.00  1074.9 16955.2    0.00 16955.2 16863.8   91.40
   17 140   209       0   31876  313301       0  313301  309943  3358.2    0.00  1074.9 16954.9    0.00 16954.9 16863.5   91.34
   17 141   210       0   31876  313289       0  313289  309937  3351.9    0.00  1074.8 16954.5    0.00 16954.5 16863.2   91.28
   17 142   211       0   31876  313278       0  313278  309932  3345.8    0.00  1074.8 16954.1    0.00 16954.1 16862.9   91.22
   17 143   212       0   31875  313267       0  313267  309927  3339.6    0.00  1074.8 16953.8    0.00 16953.8 16862.6   91.16
   17 144   213       0   31875  313256       0  313256  309922  3333.5    0.00  1074.8 16953.5    0.00 16953.5 16862.4   91.10
   17 145   214       0   31875  313235       0  313235  309920  3315.5    0.00  1074.8 16953.2    0.00 16953.2 16862.2   91.01
   17 146   215       0   31875  313215       0  313215  309917  3298.2    0.00  1074.8 16952.9    0.00 16952.9 16862.0   90.91
   17 147   216       0   31875  313196       0  313196  309914  3282.2    0.00  1074.8 16952.5    0.00 16952.5 16861.7   90.82
   17 148   217       0   31876  313178       0  313178  309910  3267.8    0.00  1074.8 16952.2    0.00 16952.2 16861.5   90.72
   17 149   218       0   31876  313161       0  313161  309906  3254.6    0.00  1074.8 16951.8    0.00 16951.8 16861.2   90.62
   17 150   219       0   31875  313143       0  313143  309901  3241.7    0.00  1074.8 16951.4    0.00 16951.4 16860.9   90.51
   17 151   220       0   31876  313107       0  313107  309899  3208.1    0.00  1074.8 16950.9    0.00 16950.9 16860.6   90.29
   17 152   221       0   31877  313071       0  313071  309895  3175.4    0.00  1074.8 16950.3    0.00 16950.3 16860.3   90.03
   17 153   222       0   31878  313037       0  313037  309891  3145.4    0.00  1074.8 16949.7    0.00 16949.7 16860.0   89.78
   17 154   223       0   31878  313006       0  313006  309886  3119.7    0.00  1074.8 16949.1    0.00 16949.1 16859.6   89.53
   17 155   224       0   31881  312959       0  312959  309886  3072.8    0.00  1074.9 16948.5    0.00 16948.5 16859.4   89.14
   17 156   225       0   31884  312920       0  312920  309885  3035.1    0.00  1075.0 16947.9    0.00 16947.9 16859.1   88.80
   17 157   226       0   31887  312882       0  312882  309884  2998.2    0.00  1075.0 16947.4    0.00 16947.4 16858.9   88.44
   17 158   227       0   31889  312848       0  312848  309884  2964.5    0.00  1075.1 16946.9    0.00 16946.9 16858.8   88.12
   17 159   228       0   31891  312818       0  312818  309884  2934.6    0.00  1075.2 16946.5    0.00 16946.5 16858.6   87.83
   17 160   229       0   31893  312797       0  312797  309883  2914.7    0.00  1075.2 16946.1    0.00 16946.1 16858.5   87.63
   17 161   230       0   31894  312780       0  312780  309880  2899.5    0.00  1075.2 16945.8    0.00 16945.8 16858.3   87.48
   17 162   231       0   31895  312765       0  312765  309878  2887.1    0.00  1075.3 16945.4    0.00 16945.4 16858.1   87.34
   17 163   232       0   31895  312751       0  312751  309874  2877.5    0.00  1075.3 16945.1    0.00 16945.1 16857.8   87.23
   17 164   233       0   31895  312737       0  312737  309869  2868.3    0.00  1075.3 16944.7    0.00 16944.7 16857.5   87.12
   17 165   234       0   31895  312716       0  312716  309865  2850.6    0.00  1075.3 16944.2    0.00 16944.2 16857.3   86.89
   17 166   235       0   31896  312697       0  312697  309862  2834.7    0.00  1075.3 16943.7    0.00 16943.7 16857.0   86.69
   17 167   236       0   31897  312672       0  312672  309859  2812.7    0.00  1075.3 16943.2    0.00 16943.2 16856.8   86.40
   17 168   237       0   31898  312650       0  312650  309857  2793.8    0.00  1075.3 16942.7    0.00 16942.7 16856.5   86.15
   17 169   238       0   31899  312630       0  312630  309854  2776.0    0.00  1075.4 16942.2    0.00 16942.2 16856.3   85.94
   17 170   239       0   31900  312611       0  312611  309853  2758.1    0.00  1075.4 16941.8    0.00 16941.8 16856.1   85.73
   17 171   240       0   31902  312593       0  312593  309850  2742.9    0.00  1075.4 16941.4    0.00 16941.4 16855.9   85.55
   17 172   241       0   31902  312579       0  312579  309848  2730.9    0.00  1075.5 16941.1    0.00 16941.1 16855.7   85.40
   17 173   242       0   31903  312566       0  312566  309844  2721.5    0.00  1075.5 16940.7    0.00 16940.7 16855.4   85.27
   17 174   243       0   31904  312546       0  312546  309842  2704.4    0.00  1075.5 16940.2    0.00 16940.2 16855.2   85.01
   17 175   244       0   31904  312532       0  312532  309838  2693.5    0.00  1075.5 16939.7    0.00 16939.7 16854.9   84.84
   17 176   245       0   31904  312520       0  312520  309834  2686.0    0.00  1075.5 16939.3    0.00 16939.3 16854.6   84.72
   17 177   246       0   31904  312509       0  312509  309830  2678.2    0.00  1075.5 16938.9    0.00 16938.9 16854.3   84.58
   17 178   247       0   31905  312491       0  312491  309828  2663.0    0.00  1075.5 16938.4    0.00 16938.4 16854.1   84.31
   17 179   248       0   31906  312463       0  312463  309828  2634.6    0.00  1075.6 16937.8    0.00 16937.8 16854.0   83.85
   17 180   249       0   31911  312413       0  312413  309833  2580.4    0.00  1075.7 16937.1    0.00 16937.1 16854.0   83.15
   17 181   250       0   31917  312362       0  312362  309838  2524.1    0.00  1075.9 16936.4    0.00 16936.4 16854.0   82.38
   17 182   251       0   31922  312314       0  312314  309843  2471.0    0.00  1076.1 16935.6    0.00 16935.6 16854.0   81.60
   17 183   252       0   31926  312276       0  312276  309845  2430.3    0.00  1076.2 16934.9    0.00 16934.9 16853.9   80.98
   17 184   253       0   31929  312245       0  312245  309847  2398.5    0.00  1076.3 16934.4    0.00 16934.4 16853.9   80.49
   17 185   254       0   31932  312219       0  312219  309847  2371.6    0.00  1076.4 16933.8    0.00 16933.8 16853.8   80.06
   17 186   255       0   31934  312198       0  312198  309847  2350.3    0.00  1076.4 16933.4    0.00 16933.4 16853.7   79.71
   17 187   256       0   31935  312182       0  312182  309846  2335.8    0.00  1076.5 16933.0    0.00 16933.0 16853.5   79.47
   17 188   257       0   31935  312176       0  312176  309842  2333.2    0.00  1076.5 16932.7    0.00 16932.7 16853.3   79.41
   17 189   258       0   31934  312169       0  312169  309838  2331.0    0.00  1076.5 16932.4    0.00 16932.4 16853.0   79.35
   17 190   259       0   31934  312163       0  312163  309834  2329.0    0.00  1076.4 16932.0    0.00 16932.0 16852.7   79.31
   17 191   260       0   31940  312110       0  312110  309839  2271.3    0.00  1076.6 16931.1    0.00 16931.1 16852.7   78.32
   17 192   261       0   31946  312056       0  312056  309844  2212.7    0.00  1076.8 16930.0    0.00 16930.0 16852.7   77.26
   17 193   262       0   31951  312005       0  312005  309848  2157.3    0.00  1077.0 16928.9    0.00 16928.9 16852.7   76.20
   17 194   263       0   31956  311957       0  311957  309851  2105.7    0.00  1077.2 16927.9    0.00 16927.9 16852.7   75.17
   17 195   264       0   31960  311917       0  311917  309853  2063.6    0.00  1077.3 16927.0    0.00 16927.0 16852.7   74.29
   17 196   265       0   31964  311881       0  311881  309855  2025.9    0.00  1077.5 16926.1    0.00 16926.1 16852.6   73.49
   17 197   266       0   31967  311849       0  311849  309856  1992.4    0.00  1077.6 16925.3    0.00 16925.3 16852.6   72.74
   17 198   267       0   31970  311821       0  311821  309857  1963.3    0.00  1077.7 16924.6    0.00 16924.6 16852.5   72.08
   17 199   268       0   31971  311797       0  311797  309857  1939.9    0.00  1077.7 16924.0    0.00 16924.0 16852.4   71.55
   17 200   269       0   31973  311776       0  311776  309856  1919.6    0.00  1077.8 16923.4    0.00 16923.4 16852.3   71.08
   17 201   270       0   31974  311757       0  311757  309854  1902.8    0.00  1077.8 16922.8    0.00 16922.8 16852.1   70.69
   17 202   271       0   31975  311742       0  311742  309851  1890.6    0.00  1077.9 16922.3    0.00 16922.3 16851.9   70.40
   17 203   272       0   31976  311728       0  311728  309848  1880.5    0.00  1077.9 16921.8    0.00 16921.8 16851.6   70.16
   17 204   273       0   31976  311715       0  311715  309845  1870.0    0.00  1077.9 16921.3    0.00 16921.3 16851.4   69.88
   17 205   274       0   31976  311705       0  311705  309841  1863.9    0.00  1077.9 16920.8    0.00 16920.8 16851.1   69.72
   17 206   275       0   31976  311693       0  311693  309837  1855.7    0.00  1077.9 16920.4    0.00 16920.4 16850.9   69.50
   17 207   276       0   31979  311663       0  311663  309838  1824.7    0.00  1078.0 16919.6    0.00 16919.6 16850.8   68.74
   17 208   277       0   31981  311639       0  311639  309837  1802.5    0.00  1078.1 16918.9    0.00 16918.9 16850.7   68.18
   17 209   278       0   31982  311618       0  311618  309836  1782.3    0.00  1078.2 16918.2    0.00 16918.2 16850.5   67.67
   17 210   279       0   31984  311594       0  311594  309835  1759.6    0.00  1078.2 16917.5    0.00 16917.5 16850.4   67.08
   17 211   280       0   31986  311567       0  311567  309834  1733.5    0.00  1078.3 16916.7    0.00 16916.7 16850.3   66.40
   17 212   281       0   31989  311537       0  311537  309833  1704.1    0.00  1078.4 16915.8    0.00 16915.8 16850.2   65.62
   17 213   282       0   31991  311504       0  311504  309831  1673.9    0.00  1078.5 16914.8    0.00 16914.8 16850.0   64.82
   17 214   283       0   31994  311467       0  311467  309829  1638.0    0.00  1078.6 16913.6    0.00 16913.6 16849.8   63.84
   17 215   284       0   31997  311428       0  311428  309827  1601.1    0.00  1078.7 16912.4    0.00 16912.4 16849.6   62.81
   17 216   285       0   32000  311388       0  311388  309824  1563.3    0.00  1078.9 16911.1    0.00 16911.1 16849.4   61.74
   17 217   286       0   32002  311348       0  311348  309822  1526.0    0.00  1079.0 16909.8    0.00 16909.8 16849.2   60.66
   17 218   287       0   32005  311312       0  311312  309819  1492.9    0.00  1079.1 16908.6    0.00 16908.6 16848.9   59.68
   17 219   288       0   32007  311280       0  311280  309816  1464.7    0.00  1079.2 16907.5    0.00 16907.5 16848.7   58.84

*DSSAT Cropping System Model Ver. 4.8.5.000 -release  FEB 02, 2026 11:47:14

*RUN   2        : 2                         WHAPS048 TUDU1701    2
 MODEL          : WHAPS048 - Wheat
 EXPERIMENT     : TUDU1701 WH
 DATA PATH      :
 TREATMENT  2   : 2                         WHAPS048
  
@YEAR DOY   DAS    OMAC    SCDD    SOCD    SC0D    SCTD   SOMCT    LCTD    ONAC    SNDD    SOND    SN0D    SNTD   SOMNT    LNTD
   16 297     0       0   31829  314106       0  314106  310026  4080.0    0.00  1073.9 16964.5    0.00 16964.5 16872.7   91.80
   16 298     1       0   31422  314066       0  314066  310028  4037.5    0.00  1058.2 16964.5    0.00 16964.5 16872.5   92.01
   16 299     2       0   31432  314025       0  314025  310031  3994.8    0.00  1058.5 16964.6    0.00 16964.6 16872.4   92.20
   16 300     3       0   31436  313986       0  313986  310033  3952.6    0.00  1058.6 16964.6    0.00 16964.6 16872.3   92.36
   16 301     4       0   31439  313951       0  313951  310035  3915.7    0.00  1058.7 16964.6    0.00 16964.6 16872.1   92.48
   16 302     5       0   31441  313924       0  313924  310037  3886.7    0.00  1058.7 16964.6    0.00 16964.6 16872.0   92.56
   16 303     6       0   31443  313904       0  313904  310037  3867.0    0.00  1058.8 16964.5    0.00 16964.5 16871.9   92.60
   16 304     7       0   31444  313891       0  313891  310037  3854.2    0.00  1058.8 16964.4    0.00 16964.4 16871.8   92.63
   16 305     8       0   31444  313884       0  313884  310037  3847.7    0.00  1058.8 16964.4    0.00 16964.4 16871.7   92.63
   16 306     9       0   31445  313880       0  313880  310036  3844.2    0.00  1058.8 16964.3    0.00 16964.3 16871.6   92.64
   16 307    10       0   31445  313878       0  313878  310035  3843.0    0.00  1058.8 16964.2    0.00 16964.2 16871.5   92.64
   16 308    11       0   31445  313875       0  313875  310034  3841.7    0.00  1058.8 16964.1    0.00 16964.1 16871.5   92.64
   16 309    12       0   31445  313874       0  313874  310033  3840.9    0.00  1058.8 16964.0    0.00 16964.0 16871.4   92.63
   16 310    13       0   31507  313872       0  313872  310032  3840.2    0.00  1061.2 16964.0    0.00 16964.0 16871.3   92.63
   16 311    14       0   31550  313871       0  313871  310031  3839.4    0.00  1062.8 16963.9    0.00 16963.9 16871.3   92.63
   16 312    15       0   31550  313869       0  313869  310030  3838.6    0.00  1062.8 16963.8    0.00 16963.8 16871.2   92.63
   16 313    16       0   31550  313868       0  313868  310030  3838.0    0.00  1062.8 16963.8    0.00 16963.8 16871.1   92.63
   16 314    17       0   31565  313867       0  313867  310029  3837.6    0.00  1063.4 16963.7    0.00 16963.7 16871.1   92.63
   16 315    18       0   31597  313866       0  313866  310029  3837.2    0.00  1064.6 16963.7    0.00 16963.7 16871.0   92.63
   16 316    19       0   31617  313866       0  313866  310029  3837.0    0.00  1065.4 16963.6    0.00 16963.6 16871.0   92.63
   16 317    20       0   31617  313865       0  313865  310028  3836.8    0.00  1065.4 16963.6    0.00 16963.6 16871.0   92.62
   16 318    21       0   31617  313865       0  313865  310028  3836.5    0.00  1065.4 16963.6    0.00 16963.6 16870.9   92.62
   16 319    22       0   31617  313864       0  313864  310028  3836.3    0.00  1065.4 16963.5    0.00 16963.5 16870.9   92.62
   16 320    23       0   31636  313864       0  313864  310028  3836.2    0.00  1066.1 16963.5    0.00 16963.5 16870.9   92.62
   16 321    24       0   31664  313864       0  313864  310027  3836.1    0.00  1067.2 16963.5    0.00 16963.5 16870.9   92.62
   16 322    25       0   31664  313863       0  313863  310027  3835.9    0.00  1067.2 16963.5    0.00 16963.5 16870.9   92.62
   16 323    26       0   31682  313862       0  313862  310027  3835.6    0.00  1067.9 16963.4    0.00 16963.4 16870.8   92.62
   16 324    27       0   31701  313861       0  313861  310026  3834.7    0.00  1068.6 16963.4    0.00 16963.4 16870.7   92.62
   16 325    28       0   31701  313857       0  313857  310025  3832.4    0.00  1068.6 16963.3    0.00 16963.3 16870.7   92.62
   16 326    29       0   31701  313852       0  313852  310024  3827.6    0.00  1068.6 16963.2    0.00 16963.2 16870.6   92.62
   16 327    30       0   31702  313846       0  313846  310024  3822.1    0.00  1068.6 16963.1    0.00 16963.1 16870.5   92.62
   16 328    31       0   31702  313839       0  313839  310023  3816.5    0.00  1068.6 16963.0    0.00 16963.0 16870.4   92.62
   16 329    32       0   31702  313835       0  313835  310022  3813.3    0.00  1068.7 16962.9    0.00 16962.9 16870.3   92.62
   16 330    33       0   31703  313830       0  313830  310021  3808.7    0.00  1068.7 16962.8    0.00 16962.8 16870.2   92.62
   16 331    34       0   31703  313824       0  313824  310021  3803.3    0.00  1068.7 16962.7    0.00 16962.7 16870.1   92.62
   16 332    35       0   31703  313819       0  313819  310020  3799.3    0.00  1068.7 16962.6    0.00 16962.6 16870.0   92.62
   16 333    36       0   31703  313817       0  313817  310019  3798.4    0.00  1068.7 16962.6    0.00 16962.6 16869.9   92.62
   16 334    37       0   31703  313816       0  313816  310018  3797.9    0.00  1068.7 16962.5    0.00 16962.5 16869.9   92.61
   16 335    38       0   31703  313816       0  313816  310018  3797.8    0.00  1068.7 16962.5    0.00 16962.5 16869.9   92.61
   16 336    39       0   31703  313816       0  313816  310018  3797.8    0.00  1068.7 16962.5    0.00 16962.5 16869.9   92.61
   16 337    40       0   31706  313816       0  313816  310018  3797.7    0.00  1068.8 16962.5    0.00 16962.5 16869.9   92.61
   16 338    41       0   31706  313816       0  313816  310018  3797.7    0.00  1068.8 16962.5    0.00 16962.5 16869.9   92.61
   16 339    42       0   31706  313816       0  313816  310018  3797.7    0.00  1068.8 16962.5    0.00 16962.5 16869.8   92.61
   16 340    43       0   31706  313815       0  313815  310018  3797.7    0.00  1068.8 16962.5    0.00 16962.5 16869.8   92.61
   16 341    44       0   31706  313815       0  313815  310018  3797.7    0.00  1068.8 16962.5    0.00 16962.5 16869.8   92.61
   16 342    45       0   31706  313815       0  313815  310018  3797.7    0.00  1068.8 16962.5    0.00 16962.5 16869.8   92.61
   16 343    46       0   31706  313815       0  313815  310018  3797.7    0.00  1068.8 16962.5    0.00 16962.5 16869.8   92.61
   16 344    47       0   31706  313815       0  313815  310018  3797.7    0.00  1068.8 16962.5    0.00 16962.5 16869.8   92.61
   16 345    48       0   31706  313815       0  313815  310018  3797.7    0.00  1068.8 16962.5    0.00 16962.5 16869.8   92.61
   16 346    49       0   31708  313815       0  313815  310018  3797.7    0.00  1068.9 16962.5    0.00 16962.5 16869.8   92.61
   16 347    50       0   31708  313815       0  313815  310018  3797.7    0.00  1068.9 16962.4    0.00 16962.4 16869.8   92.61
   16 348    51       0   31708  313815       0  313815  310018  3797.6    0.00  1068.9 16962.4    0.00 16962.4 16869.8   92.61
   16 349    52       0   31708  313815       0  313815  310017  3797.6    0.00  1068.9 16962.4    0.00 16962.4 16869.8   92.61
   16 350    53       0   31708  313815       0  313815  310017  3797.5    0.00  1068.9 16962.4    0.00 16962.4 16869.8   92.61
   16 351    54       0   31708  313815       0  313815  310017  3797.4    0.00  1068.9 16962.4    0.00 16962.4 16869.8   92.61
   16 352    55       0   31708  313814       0  313814  310017  3797.3    0.00  1068.9 16962.4    0.00 16962.4 16869.8   92.61
   16 353    56       0   31708  313814       0  313814  310017  3797.3    0.00  1068.9 16962.4    0.00 16962.4 16869.8   92.61
   16 354    57       0   31708  313814       0  313814  310017  3797.3    0.00  1068.9 16962.4    0.00 16962.4 16869.8   92.61
   16 355    58       0   31708  313814       0  313814  310017  3797.3    0.00  1068.9 16962.4    0.00 16962.4 16869.7   92.61
   16 356    59       0   31708  313814       0  313814  310017  3797.2    0.00  1068.9 16962.4    0.00 16962.4 16869.7   92.61
   16 357    60       0   31708  313814       0  313814  310017  3797.2    0.00  1068.9 16962.4    0.00 16962.4 16869.7   92.61
   16 358    61       0   31708  313814       0  313814  310017  3797.2    0.00  1068.9 16962.4    0.00 16962.4 16869.7   92.61
   16 359    62       0   31708  313814       0  313814  310017  3797.2    0.00  1068.9 16962.4    0.00 16962.4 16869.7   92.61
   16 360    63       0   31708  313814       0  313814  310017  3797.2    0.00  1068.9 16962.3    0.00 16962.3 16869.7   92.61
   16 361    64       0   31711  313814       0  313814  310017  3797.2    0.00  1069.0 16962.3    0.00 16962.3 16869.7   92.61
   16 362    65       0   31711  313814       0  313814  310016  3797.1    0.00  1069.0 16962.3    0.00 16962.3 16869.7   92.60
   16 363    66       0   31711  313813       0  313813  310016  3796.9    0.00  1069.0 16962.3    0.00 16962.3 16869.7   92.60
   16 364    67       0   31711  313813       0  313813  310016  3796.7    0.00  1069.0 16962.3    0.00 16962.3 16869.7   92.60
   16 365    68       0   31711  313812       0  313812  310016  3796.5    0.00  1069.0 16962.2    0.00 16962.2 16869.6   92.60
   16 366    69       0   31711  313812       0  313812  310016  3796.5    0.00  1069.0 16962.2    0.00 16962.2 16869.6   92.60
   17 001    70       0   31711  313812       0  313812  310015  3796.5    0.00  1069.0 16962.2    0.00 16962.2 16869.6   92.60
   17 002    71       0   31713  313812       0  313812  310015  3796.5    0.00  1069.1 16962.2    0.00 16962.2 16869.6   92.60
   17 003    72       0   31713  313812       0  313812  310015  3796.5    0.00  1069.1 16962.2    0.00 16962.2 16869.6   92.60
   17 004    73       0   31713  313812       0  313812  310015  3796.5    0.00  1069.1 16962.2    0.00 16962.2 16869.6   92.60
   17 005    74       0   31713  313812       0  313812  310015  3796.5    0.00  1069.1 16962.2    0.00 16962.2 16869.6   92.60
   17 006    75       0   31727  313812       0  313812  310015  3796.5    0.00  1069.6 16962.2    0.00 16962.2 16869.6   92.60
   17 007    76       0   31745  313812       0  313812  310015  3796.5    0.00  1070.3 16962.2    0.00 16962.2 16869.6   92.60
   17 008    77       0   31745  313812       0  313812  310015  3796.5    0.00  1070.3 16962.2    0.00 16962.2 16869.6   92.60
   17 009    78       0   31745  313812       0  313812  310015  3796.5    0.00  1070.3 16962.2    0.00 16962.2 16869.6   92.60
   17 010    79       0   31745  313812       0  313812  310015  3796.5    0.00  1070.3 16962.2    0.00 16962.2 16869.6   92.60
   17 011    80       0   31747  313812       0  313812  310015  3796.5    0.00  1070.3 16962.2    0.00 16962.2 16869.6   92.60
   17 012    81       0   31764  313812       0  313812  310015  3796.5    0.00  1071.0 16962.2    0.00 16962.2 16869.6   92.60
   17 013    82       0   31764  313812       0  313812  310015  3796.5    0.00  1071.0 16962.2    0.00 16962.2 16869.6   92.60
   17 014    83       0   31764  313812       0  313812  310015  3796.5    0.00  1071.0 16962.2    0.00 16962.2 16869.6   92.60
   17 015    84       0   31764  313812       0  313812  310015  3796.5    0.00  1071.0 16962.2    0.00 16962.2 16869.6   92.60
   17 016    85       0   31764  313812       0  313812  310015  3796.5    0.00  1071.0 16962.2    0.00 16962.2 16869.6   92.60
   17 017    86       0   31764  313812       0  313812  310015  3796.5    0.00  1071.0 16962.2    0.00 16962.2 16869.6   92.60
   17 018    87       0   31764  313812       0  313812  310015  3796.5    0.00  1071.0 16962.2    0.00 16962.2 16869.6   92.60
   17 019    88       0   31764  313812       0  313812  310015  3796.5    0.00  1071.0 16962.2    0.00 16962.2 16869.6   92.60
   17 020    89       0   31771  313812       0  313812  310015  3796.5    0.00  1071.3 16962.2    0.00 16962.2 16869.6   92.60
   17 021    90       0   31775  313812       0  313812  310015  3796.5    0.00  1071.4 16962.2    0.00 16962.2 16869.6   92.60
   17 022    91       0   31781  313812       0  313812  310015  3796.5    0.00  1071.7 16962.2    0.00 16962.2 16869.6   92.60
   17 023    92       0   31783  313812       0  313812  310015  3796.5    0.00  1071.7 16962.2    0.00 16962.2 16869.6   92.60
   17 024    93       0   31784  313812       0  313812  310015  3796.5    0.00  1071.8 16962.2    0.00 16962.2 16869.6   92.60
   17 025    94       0   31785  313812       0  313812  310015  3796.5    0.00  1071.8 16962.2    0.00 16962.2 16869.6   92.60
   17 026    95       0   31785  313812       0  313812  310015  3796.5    0.00  1071.8 16962.2    0.00 16962.2 16869.6   92.60
   17 027    96       0   31794  313812       0  313812  310015  3796.5    0.00  1072.1 16962.2    0.00 16962.2 16869.6   92.60
   17 028    97       0   31795  313812       0  313812  310015  3796.5    0.00  1072.2 16962.2    0.00 16962.2 16869.6   92.60
   17 029    98       0   31799  313812       0  313812  310015  3796.5    0.00  1072.3 16962.2    0.00 16962.2 16869.6   92.60
   17 030    99       0   31799  313812       0  313812  310015  3796.5    0.00  1072.4 16962.2    0.00 16962.2 16869.6   92.60
   17 031   100       0   31804  313812       0  313812  310015  3796.5    0.00  1072.5 16962.2    0.00 16962.2 16869.6   92.60
   17 032   101       0   31804  313812       0  313812  310015  3796.5    0.00  1072.5 16962.2    0.00 16962.2 16869.6   92.60
   17 033   102       0   31804  313812       0  313812  310015  3796.5    0.00  1072.5 16962.2    0.00 16962.2 16869.6   92.60
   17 034   103       0   31804  313812       0  313812  310015  3796.5    0.00  1072.5 16962.2    0.00 16962.2 16869.6   92.60
   17 035   104       0   31804  313812       0  313812  310015  3796.5    0.00  1072.5 16962.2    0.00 16962.2 16869.6   92.60
   17 036   105       0   31804  313812       0  313812  310015  3796.5    0.00  1072.5 16962.2    0.00 16962.2 16869.6   92.60
   17 037   106       0   31804  313812       0  313812  310015  3796.5    0.00  1072.5 16962.2    0.00 16962.2 16869.6   92.60
   17 038   107       0   31804  313812       0  313812  310015  3796.5    0.00  1072.5 16962.2    0.00 16962.2 16869.6   92.60
   17 039   108       0   31804  313812       0  313812  310015  3796.5    0.00  1072.5 16962.2    0.00 16962.2 16869.6   92.60
   17 040   109       0   31804  313812       0  313812  310015  3796.5    0.00  1072.5 16962.2    0.00 16962.2 16869.6   92.60
   17 041   110       0   31804  313812       0  313812  310015  3796.5    0.00  1072.5 16962.2    0.00 16962.2 16869.6   92.60
   17 042   111       0   31804  313812       0  313812  310015  3796.5    0.00  1072.5 16962.2    0.00 16962.2 16869.6   92.60
   17 043   112       0   31804  313812       0  313812  310015  3796.5    0.00  1072.5 16962.2    0.00 16962.2 16869.6   92.60
   17 044   113       0   31804  313812       0  313812  310015  3796.5    0.00  1072.5 16962.2    0.00 16962.2 16869.6   92.60
   17 045   114       0   31804  313812       0  313812  310015  3796.5    0.00  1072.5 16962.2    0.00 16962.2 16869.6   92.60
   17 046   115       0   31804  313812       0  313812  310015  3796.5    0.00  1072.5 16962.2    0.00 16962.2 16869.6   92.60
   17 047   116       0   31805  313812       0  313812  310015  3796.5    0.00  1072.6 16962.2    0.00 16962.2 16869.6   92.60
   17 048   117       0   31852  313812       0  313812  310015  3796.5    0.00  1074.4 16962.2    0.00 16962.2 16869.6   92.60
   17 049   118       0   31852  313812       0  313812  310015  3796.5    0.00  1074.4 16962.2    0.00 16962.2 16869.6   92.60
   17 050   119       0   31852  313812       0  313812  310015  3796.5    0.00  1074.4 16962.2    0.00 16962.2 16869.6   92.60
   17 051   120       0   31852  313812       0  313812  310015  3796.5    0.00  1074.4 16962.2    0.00 16962.2 16869.6   92.60
   17 052   121       0   31852  313812       0  313812  310015  3796.5    0.00  1074.4 16962.2    0.00 16962.2 16869.6   92.60
   17 053   122       0   31852  313812       0  313812  310015  3796.5    0.00  1074.4 16962.2    0.00 16962.2 16869.6   92.60
   17 054   123       0   31852  313812       0  313812  310015  3796.3    0.00  1074.4 16962.2    0.00 16962.2 16869.6   92.60
   17 055   124       0   31852  313802       0  313802  310016  3785.6    0.00  1074.4 16962.2    0.00 16962.2 16869.6   92.61
   17 056   125       0   31854  313787       0  313787  310017  3769.4    0.00  1074.4 16962.2    0.00 16962.2 16869.5   92.63
   17 057   126       0   31855  313776       0  313776  310018  3757.7    0.00  1074.4 16962.2    0.00 16962.2 16869.5   92.64
   17 058   127       0   31855  313770       0  313770  310019  3751.0    0.00  1074.4 16962.1    0.00 16962.1 16869.5   92.64
   17 059   128       0   31856  313769       0  313769  310019  3750.1    0.00  1074.5 16962.1    0.00 16962.1 16869.5   92.64
   17 060   129       0   31856  313769       0  313769  310018  3750.1    0.00  1074.5 16962.1    0.00 16962.1 16869.5   92.64
   17 061   130       0   31856  313769       0  313769  310018  3750.1    0.00  1074.5 16962.1    0.00 16962.1 16869.5   92.64
   17 062   131       0   31856  313768       0  313768  310018  3750.1    0.00  1074.5 16962.1    0.00 16962.1 16869.5   92.64
   17 063   132       0   31856  313768       0  313768  310018  3750.1    0.00  1074.5 16962.1    0.00 16962.1 16869.5   92.64
   17 064   133       0   31856  313768       0  313768  310018  3750.0    0.00  1074.5 16962.1    0.00 16962.1 16869.4   92.64
   17 065   134       0   31856  313768       0  313768  310018  3749.5    0.00  1074.5 16962.1    0.00 16962.1 16869.4   92.64
   17 066   135       0   31856  313766       0  313766  310018  3747.6    0.00  1074.5 16962.1    0.00 16962.1 16869.4   92.64
   17 067   136       0   31856  313765       0  313765  310018  3747.4    0.00  1074.5 16962.0    0.00 16962.0 16869.4   92.63
   17 068   137       0   31856  313764       0  313764  310018  3746.5    0.00  1074.5 16962.0    0.00 16962.0 16869.4   92.63
   17 069   138       0   31856  313764       0  313764  310018  3746.4    0.00  1074.5 16962.0    0.00 16962.0 16869.4   92.63
   17 070   139       0   31856  313764       0  313764  310018  3746.4    0.00  1074.5 16962.0    0.00 16962.0 16869.4   92.63
   17 071   140       0   31856  313764       0  313764  310018  3746.3    0.00  1074.5 16962.0    0.00 16962.0 16869.4   92.63
   17 072   141       0   31856  313764       0  313764  310018  3746.3    0.00  1074.5 16962.0    0.00 16962.0 16869.4   92.63
   17 073   142       0   31856  313764       0  313764  310017  3746.3    0.00  1074.5 16962.0    0.00 16962.0 16869.4   92.63
   17 074   143       0   31856  313764       0  313764  310017  3746.3    0.00  1074.5 16962.0    0.00 16962.0 16869.3   92.63
   17 075   144       0   31856  313764       0  313764  310017  3746.3    0.00  1074.5 16962.0    0.00 16962.0 16869.3   92.63
   17 076   145       0   31856  313763       0  313763  310017  3745.4    0.00  1074.5 16962.0    0.00 16962.0 16869.3   92.63
   17 077   146       0   31856  313757       0  313757  310018  3739.5    0.00  1074.5 16962.0    0.00 16962.0 16869.3   92.63
   17 078   147       0   31857  313748       0  313748  310018  3729.7    0.00  1074.5 16961.9    0.00 16961.9 16869.3   92.64
   17 079   148       0   31859  313734       0  313734  310020  3714.1    0.00  1074.5 16961.9    0.00 16961.9 16869.3   92.64
   17 080   149       0   31860  313716       0  313716  310021  3695.6    0.00  1074.6 16961.9    0.00 16961.9 16869.2   92.64
   17 081   150       0   31862  313697       0  313697  310022  3675.2    0.00  1074.6 16961.8    0.00 16961.8 16869.2   92.64
   17 082   151       0   31864  313681       0  313681  310023  3658.3    0.00  1074.6 16961.8    0.00 16961.8 16869.1   92.63
   17 083   152       0   31865  313665       0  313665  310024  3641.3    0.00  1074.7 16961.7    0.00 16961.7 16869.1   92.62
   17 084   153       0   31866  313654       0  313654  310025  3629.2    0.00  1074.7 16961.7    0.00 16961.7 16869.1   92.60
   17 085   154       0   31867  313645       0  313645  310025  3619.6    0.00  1074.7 16961.6    0.00 16961.6 16869.0   92.59
   17 086   155       0   31868  313639       0  313639  310025  3614.0    0.00  1074.7 16961.6    0.00 16961.6 16869.0   92.59
   17 087   156       0   31868  313633       0  313633  310025  3607.4    0.00  1074.7 16961.6    0.00 16961.6 16869.0   92.58
   17 088   157       0   31869  313626       0  313626  310025  3601.0    0.00  1074.8 16961.5    0.00 16961.5 16869.0   92.56
   17 089   158       0   31870  313617       0  313617  310025  3591.7    0.00  1074.8 16961.5    0.00 16961.5 16868.9   92.55
   17 090   159       0   31871  313607       0  313607  310025  3581.7    0.00  1074.8 16961.4    0.00 16961.4 16868.9   92.53
   17 091   160       0   31872  313593       0  313593  310025  3568.4    0.00  1074.8 16961.3    0.00 16961.3 16868.8   92.50
   17 092   161       0   31873  313578       0  313578  310024  3554.7    0.00  1074.9 16961.1    0.00 16961.1 16868.6   92.46
   17 093   162       0   31874  313563       0  313563  310022  3540.9    0.00  1074.9 16960.9    0.00 16960.9 16868.5   92.42
   17 094   163       0   31875  313548       0  313548  310021  3527.4    0.00  1074.9 16960.7    0.00 16960.7 16868.3   92.38
   17 095   164       0   31876  313535       0  313535  310020  3515.4    0.00  1074.9 16960.5    0.00 16960.5 16868.2   92.34
   17 096   165       0   31877  313524       0  313524  310018  3505.2    0.00  1074.9 16960.4    0.00 16960.4 16868.1   92.30
   17 097   166       0   31877  313516       0  313516  310018  3498.0    0.00  1075.0 16960.3    0.00 16960.3 16868.0   92.28
   17 098   167       0   31878  313510       0  313510  310017  3492.5    0.00  1075.0 16960.2    0.00 16960.2 16868.0   92.26
   17 099   168       0   31878  313504       0  313504  310017  3487.6    0.00  1075.0 16960.1    0.00 16960.1 16867.9   92.24
   17 100   169       0   31879  313497       0  313497  310016  3481.6    0.00  1075.0 16960.0    0.00 16960.0 16867.8   92.22
   17 101   170       0   31879  313489       0  313489  310014  3474.7    0.00  1075.0 16959.9    0.00 16959.9 16867.7   92.19
   17 102   171       0   31879  313481       0  313481  310013  3468.3    0.00  1075.0 16959.7    0.00 16959.7 16867.6   92.16
   17 103   172       0   31880  313473       0  313473  310011  3462.2    0.00  1075.0 16959.6    0.00 16959.6 16867.5   92.13
   17 104   173       0   31880  313466       0  313466  310010  3456.8    0.00  1075.0 16959.4    0.00 16959.4 16867.3   92.10
   17 105   174       0   31881  313461       0  313461  310008  3452.5    0.00  1075.0 16959.3    0.00 16959.3 16867.2   92.07
   17 106   175       0   31881  313456       0  313456  310007  3449.0    0.00  1075.0 16959.2    0.00 16959.2 16867.2   92.05
   17 107   176       0   31881  313451       0  313451  310006  3445.0    0.00  1075.0 16959.1    0.00 16959.1 16867.1   92.03
   17 108   177       0   31881  313445       0  313445  310005  3439.9    0.00  1075.1 16959.0    0.00 16959.0 16867.0   92.01
   17 109   178       0   31881  313442       0  313442  310005  3436.7    0.00  1075.1 16959.0    0.00 16959.0 16867.0   92.00
   17 110   179       0   31882  313440       0  313440  310005  3435.5    0.00  1075.1 16959.0    0.00 16959.0 16867.0   92.00
   17 111   180       0   31882  313440       0  313440  310005  3435.5    0.00  1075.1 16959.0    0.00 16959.0 16867.0   92.00
   17 112   181       0   31882  313440       0  313440  310005  3435.5    0.00  1075.1 16959.0    0.00 16959.0 16867.0   92.00
   17 113   182       0   31882  313440       0  313440  310005  3435.5    0.00  1075.1 16959.0    0.00 16959.0 16867.0   92.00
   17 114   183       0   31882  313440       0  313440  310005  3435.5    0.00  1075.1 16959.0    0.00 16959.0 16867.0   92.00
   17 115   184       0   31882  313440       0  313440  310005  3435.5    0.00  1075.1 16959.0    0.00 16959.0 16867.0   92.00
   17 116   185       0   31882  313440       0  313440  310005  3434.7    0.00  1075.1 16959.0    0.00 16959.0 16867.0   91.99
   17 117   186       0   31882  313440       0  313440  310005  3434.6    0.00  1075.1 16959.0    0.00 16959.0 16867.0   91.99
   17 118   187       0   31882  313440       0  313440  310005  3434.6    0.00  1075.1 16959.0    0.00 16959.0 16867.0   91.99
   17 119   188       0   31882  313440       0  313440  310005  3434.6    0.00  1075.1 16959.0    0.00 16959.0 16867.0   91.99
   17 120   189       0   31882  313440       0  313440  310005  3434.6    0.00  1075.1 16959.0    0.00 16959.0 16867.0   91.99
   17 121   190       0   31882  313440       0  313440  310005  3434.6    0.00  1075.1 16959.0    0.00 16959.0 16867.0   91.99
   17 122   191       0   31882  313439       0  313439  310005  3434.5    0.00  1075.1 16959.0    0.00 16959.0 16867.0   91.99
   17 123   192       0   31882  313438       0  313438  310004  3433.8    0.00  1075.1 16958.9    0.00 16958.9 16866.9   91.98
   17 124   193       0   31881  313434       0  313434  310002  3432.2    0.00  1075.0 16958.8    0.00 16958.8 16866.8   91.97
   17 125   194       0   31881  313430       0  313430  310000  3429.9    0.00  1075.0 16958.7    0.00 16958.7 16866.7   91.95
   17 126   195       0   31881  313425       0  313425  309997  3427.1    0.00  1075.0 16958.5    0.00 16958.5 16866.6   91.93
   17 127   196       0   31881  313418       0  313418  309994  3423.9    0.00  1075.0 16958.3    0.00 16958.3 16866.4   91.90
   17 128   197       0   31880  313411       0  313411  309991  3420.2    0.00  1075.0 16958.1    0.00 16958.1 16866.2   91.87
   17 129   198       0   31880  313405       0  313405  309988  3416.2    0.00  1075.0 16957.9    0.00 16957.9 16866.1   91.84
   17 130   199       0   31880  313397       0  313397  309986  3411.7    0.00  1075.0 16957.7    0.00 16957.7 16865.9   91.81
   17 131   200       0   31880  313391       0  313391  309984  3407.6    0.00  1075.0 16957.6    0.00 16957.6 16865.8   91.78
   17 132   201       0   31880  313385       0  313385  309981  3404.1    0.00  1075.0 16957.4    0.00 16957.4 16865.6   91.76
   17 133   202       0   31879  313379       0  313379  309978  3400.7    0.00  1075.0 16957.2    0.00 16957.2 16865.5   91.73
   17 134   203       0   31879  313371       0  313371  309974  3396.7    0.00  1075.0 16957.0    0.00 16957.0 16865.3   91.69
   17 135   204       0   31878  313362       0  313362  309970  3391.9    0.00  1074.9 16956.7    0.00 16956.7 16865.0   91.64
   17 136   205       0   31878  313350       0  313350  309964  3385.6    0.00  1074.9 16956.3    0.00 16956.3 16864.7   91.59
   17 137   206       0   31878  313338       0  313338  309959  3378.2    0.00  1074.9 16956.0    0.00 16956.0 16864.4   91.53
   17 138   207       0   31877  313325       0  313325  309954  3370.9    0.00  1074.9 16955.6    0.00 16955.6 16864.1   91.47
   17 139   208       0   31877  313313       0  313313  309949  3364.1    0.00  1074.9 16955.2    0.00 16955.2 16863.8   91.40
   17 140   209       0   31876  313301       0  313301  309943  3357.6    0.00  1074.9 16954.9    0.00 16954.9 16863.5   91.34
   17 141   210       0   31876  313289       0  313289  309938  3351.4    0.00  1074.8 16954.5    0.00 16954.5 16863.2   91.28
   17 142   211       0   31876  313278       0  313278  309932  3345.2    0.00  1074.8 16954.2    0.00 16954.2 16862.9   91.22
   17 143   212       0   31875  313266       0  313266  309927  3339.0    0.00  1074.8 16953.8    0.00 16953.8 16862.6   91.16
   17 144   213       0   31875  313255       0  313255  309922  3332.8    0.00  1074.8 16953.5    0.00 16953.5 16862.4   91.10
   17 145   214       0   31875  313235       0  313235  309920  3314.8    0.00  1074.8 16953.2    0.00 16953.2 16862.2   91.01
   17 146   215       0   31875  313215       0  313215  309917  3297.4    0.00  1074.8 16952.9    0.00 16952.9 16862.0   90.91
   17 147   216       0   31875  313196       0  313196  309914  3281.4    0.00  1074.8 16952.5    0.00 16952.5 16861.7   90.81
   17 148   217       0   31876  313178       0  313178  309911  3267.0    0.00  1074.8 16952.2    0.00 16952.2 16861.5   90.71
   17 149   218       0   31876  313160       0  313160  309906  3253.8    0.00  1074.8 16951.8    0.00 16951.8 16861.2   90.61
   17 150   219       0   31875  313142       0  313142  309901  3240.9    0.00  1074.8 16951.4    0.00 16951.4 16860.9   90.51
   17 151   220       0   31876  313107       0  313107  309899  3207.5    0.00  1074.8 16950.9    0.00 16950.9 16860.6   90.28
   17 152   221       0   31877  313071       0  313071  309896  3174.8    0.00  1074.8 16950.3    0.00 16950.3 16860.3   90.03
   17 153   222       0   31878  313037       0  313037  309892  3145.0    0.00  1074.8 16949.7    0.00 16949.7 16860.0   89.77
   17 154   223       0   31878  313006       0  313006  309887  3119.3    0.00  1074.8 16949.1    0.00 16949.1 16859.6   89.53
   17 155   224       0   31882  312959       0  312959  309887  3072.0    0.00  1074.9 16948.5    0.00 16948.5 16859.4   89.13
   17 156   225       0   31884  312920       0  312920  309886  3034.2    0.00  1075.0 16947.9    0.00 16947.9 16859.2   88.79
   17 157   226       0   31887  312882       0  312882  309885  2997.1    0.00  1075.1 16947.4    0.00 16947.4 16859.0   88.44
   17 158   227       0   31889  312849       0  312849  309884  2964.8    0.00  1075.1 16946.9    0.00 16946.9 16858.8   88.13
   17 159   228       0   31891  312822       0  312822  309884  2937.8    0.00  1075.2 16946.5    0.00 16946.5 16858.6   87.86
   17 160   229       0   31893  312802       0  312802  309882  2919.3    0.00  1075.2 16946.1    0.00 16946.1 16858.5   87.67
   17 161   230       0   31894  312785       0  312785  309880  2905.0    0.00  1075.2 16945.8    0.00 16945.8 16858.3   87.53
   17 162   231       0   31894  312770       0  312770  309877  2893.3    0.00  1075.2 16945.5    0.00 16945.5 16858.1   87.40
   17 163   232       0   31894  312757       0  312757  309873  2884.0    0.00  1075.2 16945.1    0.00 16945.1 16857.8   87.30
   17 164   233       0   31894  312743       0  312743  309868  2875.1    0.00  1075.2 16944.7    0.00 16944.7 16857.5   87.19
   17 165   234       0   31895  312723       0  312723  309865  2857.7    0.00  1075.3 16944.2    0.00 16944.2 16857.3   86.97
   17 166   235       0   31895  312704       0  312704  309862  2842.0    0.00  1075.3 16943.8    0.00 16943.8 16857.0   86.77
   17 167   236       0   31896  312679       0  312679  309859  2820.3    0.00  1075.3 16943.2    0.00 16943.2 16856.8   86.48
   17 168   237       0   31897  312658       0  312658  309856  2801.7    0.00  1075.3 16942.8    0.00 16942.8 16856.5   86.24
   17 169   238       0   31898  312638       0  312638  309854  2784.3    0.00  1075.3 16942.3    0.00 16942.3 16856.3   86.03
   17 170   239       0   31900  312619       0  312619  309852  2766.9    0.00  1075.4 16941.9    0.00 16941.9 16856.1   85.83
   17 171   240       0   31901  312602       0  312602  309850  2752.0    0.00  1075.4 16941.6    0.00 16941.6 16855.9   85.65
   17 172   241       0   31902  312588       0  312588  309847  2740.5    0.00  1075.4 16941.2    0.00 16941.2 16855.7   85.51
   17 173   242       0   31902  312576       0  312576  309844  2731.6    0.00  1075.5 16940.8    0.00 16940.8 16855.4   85.39
   17 174   243       0   31903  312557       0  312557  309842  2714.9    0.00  1075.5 16940.3    0.00 16940.3 16855.2   85.14
   17 175   244       0   31903  312543       0  312543  309838  2704.7    0.00  1075.5 16939.9    0.00 16939.9 16854.9   84.98
   17 176   245       0   31903  312531       0  312531  309834  2697.7    0.00  1075.5 16939.5    0.00 16939.5 16854.6   84.86
   17 177   246       0   31903  312520       0  312520  309830  2690.3    0.00  1075.5 16939.1    0.00 16939.1 16854.3   84.73
   17 178   247       0   31903  312503       0  312503  309828  2675.4    0.00  1075.5 16938.6    0.00 16938.6 16854.1   84.46
   17 179   248       0   31905  312475       0  312475  309828  2646.8    0.00  1075.5 16938.0    0.00 16938.0 16854.0   84.01
   17 180   249       0   31910  312425       0  312425  309833  2592.7    0.00  1075.7 16937.3    0.00 16937.3 16854.0   83.32
   17 181   250       0   31916  312374       0  312374  309838  2536.6    0.00  1075.9 16936.6    0.00 16936.6 16854.0   82.55
   17 182   251       0   31921  312326       0  312326  309842  2483.9    0.00  1076.0 16935.8    0.00 16935.8 16854.0   81.79
   17 183   252       0   31925  312289       0  312289  309845  2444.5    0.00  1076.1 16935.2    0.00 16935.2 16854.0   81.20
   17 184   253       0   31927  312261       0  312261  309846  2414.7    0.00  1076.2 16934.6    0.00 16934.6 16853.9   80.74
   17 185   254       0   31930  312237       0  312237  309846  2390.2    0.00  1076.3 16934.1    0.00 16934.1 16853.8   80.36
   17 186   255       0   31931  312218       0  312218  309846  2372.5    0.00  1076.4 16933.7    0.00 16933.7 16853.6   80.08
   17 187   256       0   31932  312208       0  312208  309843  2364.3    0.00  1076.4 16933.4    0.00 16933.4 16853.4   79.93
   17 188   257       0   31932  312202       0  312202  309840  2362.0    0.00  1076.4 16933.1    0.00 16933.1 16853.2   79.88
   17 189   258       0   31931  312196       0  312196  309836  2360.0    0.00  1076.4 16932.8    0.00 16932.8 16852.9   79.83
   17 190   259       0   31931  312190       0  312190  309831  2358.4    0.00  1076.3 16932.4    0.00 16932.4 16852.7   79.79
   17 191   260       0   31937  312136       0  312136  309836  2299.9    0.00  1076.5 16931.5    0.00 16931.5 16852.7   78.82
   17 192   261       0   31943  312081       0  312081  309841  2239.9    0.00  1076.7 16930.4    0.00 16930.4 16852.7   77.76
   17 193   262       0   31949  312029       0  312029  309845  2183.3    0.00  1076.9 16929.4    0.00 16929.4 16852.7   76.70
   17 194   263       0   31954  311980       0  311980  309849  2130.6    0.00  1077.1 16928.3    0.00 16928.3 16852.7   75.67
   17 195   264       0   31958  311939       0  311939  309851  2087.6    0.00  1077.2 16927.4    0.00 16927.4 16852.6   74.79
   17 196   265       0   31962  311902       0  311902  309853  2049.0    0.00  1077.4 16926.6    0.00 16926.6 16852.6   73.98
   17 197   266       0   31965  311869       0  311869  309855  2014.6    0.00  1077.5 16925.8    0.00 16925.8 16852.5   73.23
   17 198   267       0   31968  311841       0  311841  309856  1984.8    0.00  1077.6 16925.0    0.00 16925.0 16852.5   72.57
   17 199   268       0   31970  311817       0  311817  309856  1960.9    0.00  1077.7 16924.4    0.00 16924.4 16852.4   72.02
   17 200   269       0   31971  311795       0  311795  309855  1940.2    0.00  1077.7 16923.8    0.00 16923.8 16852.3   71.55
   17 201   270       0   31973  311776       0  311776  309853  1923.2    0.00  1077.8 16923.2    0.00 16923.2 16852.1   71.16
   17 202   271       0   31973  311761       0  311761  309850  1911.0    0.00  1077.8 16922.7    0.00 16922.7 16851.8   70.88
   17 203   272       0   31974  311748       0  311748  309847  1900.9    0.00  1077.8 16922.2    0.00 16922.2 16851.6   70.64
   17 204   273       0   31974  311734       0  311734  309843  1890.6    0.00  1077.8 16921.7    0.00 16921.7 16851.3   70.37
   17 205   274       0   31974  311724       0  311724  309839  1884.8    0.00  1077.8 16921.3    0.00 16921.3 16851.1   70.22
   17 206   275       0   31974  311713       0  311713  309836  1877.0    0.00  1077.9 16920.8    0.00 16920.8 16850.8   70.00
   17 207   276       0   31977  311682       0  311682  309837  1845.2    0.00  1078.0 16920.0    0.00 16920.0 16850.8   69.24
   17 208   277       0   31979  311658       0  311658  309836  1822.6    0.00  1078.0 16919.3    0.00 16919.3 16850.6   68.68
   17 209   278       0   31980  311637       0  311637  309834  1802.1    0.00  1078.1 16918.7    0.00 16918.7 16850.5   68.16
   17 210   279       0   31982  311613       0  311613  309834  1779.1    0.00  1078.2 16918.0    0.00 16918.0 16850.4   67.58
   17 211   280       0   31985  311585       0  311585  309833  1752.6    0.00  1078.2 16917.1    0.00 16917.1 16850.3   66.89
   17 212   281       0   31987  311554       0  311554  309832  1722.8    0.00  1078.3 16916.2    0.00 16916.2 16850.1   66.11
   17 213   282       0   31989  311522       0  311522  309830  1692.2    0.00  1078.4 16915.2    0.00 16915.2 16849.9   65.30
   17 214   283       0   31992  311484       0  311484  309828  1655.8    0.00  1078.6 16914.1    0.00 16914.1 16849.8   64.32
   17 215   284       0   31995  311444       0  311444  309826  1618.4    0.00  1078.7 16912.8    0.00 16912.8 16849.6   63.29
   17 216   285       0   31998  311404       0  311404  309824  1580.0    0.00  1078.8 16911.6    0.00 16911.6 16849.3   62.21
   17 217   286       0   32001  311364       0  311364  309822  1542.2    0.00  1078.9 16910.3    0.00 16910.3 16849.1   61.12
   17 218   287       0   32003  311327       0  311327  309819  1508.5    0.00  1079.0 16909.0    0.00 16909.0 16848.9   60.14
   17 219   288       0   32005  311295       0  311295  309815  1479.9    0.00  1079.1 16908.0    0.00 16908.0 16848.7   59.29

*DSSAT Cropping System Model Ver. 4.8.5.000 -release  FEB 02, 2026 11:47:14

*RUN   3        : 3                         WHAPS048 TUDU1701    3
 MODEL          : WHAPS048 - Wheat
 EXPERIMENT     : TUDU1701 WH
 DATA PATH      :
 TREATMENT  3   : 3                         WHAPS048
  
@YEAR DOY   DAS    OMAC    SCDD    SOCD    SC0D    SCTD   SOMCT    LCTD    ONAC    SNDD    SOND    SN0D    SNTD   SOMNT    LNTD
   16 297     0       0   31829  314106       0  314106  310026  4080.0    0.00  1073.9 16964.5    0.00 16964.5 16872.7   91.80
   16 298     1       0   31422  314066       0  314066  310028  4037.5    0.00  1058.2 16964.5    0.00 16964.5 16872.5   92.01
   16 299     2       0   31432  314025       0  314025  310031  3994.8    0.00  1058.5 16964.6    0.00 16964.6 16872.4   92.20
   16 300     3       0   31436  313986       0  313986  310033  3952.6    0.00  1058.6 16964.6    0.00 16964.6 16872.3   92.36
   16 301     4       0   31439  313951       0  313951  310035  3915.7    0.00  1058.7 16964.6    0.00 16964.6 16872.1   92.48
   16 302     5       0   31441  313924       0  313924  310037  3886.7    0.00  1058.7 16964.6    0.00 16964.6 16872.0   92.56
   16 303     6       0   31443  313904       0  313904  310037  3867.0    0.00  1058.8 16964.5    0.00 16964.5 16871.9   92.60
   16 304     7       0   31444  313891       0  313891  310037  3854.2    0.00  1058.8 16964.4    0.00 16964.4 16871.8   92.63
   16 305     8       0   31444  313884       0  313884  310037  3847.7    0.00  1058.8 16964.4    0.00 16964.4 16871.7   92.63
   16 306     9       0   31445  313880       0  313880  310036  3844.2    0.00  1058.8 16964.3    0.00 16964.3 16871.6   92.64
   16 307    10       0   31445  313878       0  313878  310035  3843.0    0.00  1058.8 16964.2    0.00 16964.2 16871.5   92.64
   16 308    11       0   31445  313875       0  313875  310034  3841.7    0.00  1058.8 16964.1    0.00 16964.1 16871.5   92.64
   16 309    12       0   31445  313874       0  313874  310033  3840.9    0.00  1058.8 16964.0    0.00 16964.0 16871.4   92.63
   16 310    13       0   31507  313872       0  313872  310032  3840.2    0.00  1061.2 16964.0    0.00 16964.0 16871.3   92.63
   16 311    14       0   31550  313871       0  313871  310031  3839.4    0.00  1062.8 16963.9    0.00 16963.9 16871.3   92.63
   16 312    15       0   31550  313869       0  313869  310030  3838.6    0.00  1062.8 16963.8    0.00 16963.8 16871.2   92.63
   16 313    16       0   31550  313868       0  313868  310030  3838.0    0.00  1062.8 16963.8    0.00 16963.8 16871.1   92.63
   16 314    17       0   31565  313867       0  313867  310029  3837.6    0.00  1063.4 16963.7    0.00 16963.7 16871.1   92.63
   16 315    18       0   31597  313866       0  313866  310029  3837.2    0.00  1064.6 16963.7    0.00 16963.7 16871.0   92.63
   16 316    19       0   31617  313866       0  313866  310029  3837.0    0.00  1065.4 16963.6    0.00 16963.6 16871.0   92.63
   16 317    20       0   31617  313865       0  313865  310028  3836.8    0.00  1065.4 16963.6    0.00 16963.6 16871.0   92.62
   16 318    21       0   31617  313865       0  313865  310028  3836.5    0.00  1065.4 16963.6    0.00 16963.6 16870.9   92.62
   16 319    22       0   31617  313864       0  313864  310028  3836.3    0.00  1065.4 16963.5    0.00 16963.5 16870.9   92.62
   16 320    23       0   31636  313864       0  313864  310028  3836.2    0.00  1066.1 16963.5    0.00 16963.5 16870.9   92.62
   16 321    24       0   31664  313864       0  313864  310027  3836.1    0.00  1067.2 16963.5    0.00 16963.5 16870.9   92.62
   16 322    25       0   31664  313863       0  313863  310027  3835.9    0.00  1067.2 16963.5    0.00 16963.5 16870.9   92.62
   16 323    26       0   31682  313862       0  313862  310027  3835.6    0.00  1067.9 16963.4    0.00 16963.4 16870.8   92.62
   16 324    27       0   31701  313861       0  313861  310026  3834.7    0.00  1068.6 16963.4    0.00 16963.4 16870.7   92.62
   16 325    28       0   31701  313857       0  313857  310025  3832.4    0.00  1068.6 16963.3    0.00 16963.3 16870.7   92.62
   16 326    29       0   31701  313852       0  313852  310024  3827.6    0.00  1068.6 16963.2    0.00 16963.2 16870.6   92.62
   16 327    30       0   31702  313846       0  313846  310024  3822.1    0.00  1068.6 16963.1    0.00 16963.1 16870.5   92.62
   16 328    31       0   31702  313839       0  313839  310023  3816.5    0.00  1068.6 16963.0    0.00 16963.0 16870.4   92.62
   16 329    32       0   31702  313835       0  313835  310022  3813.3    0.00  1068.7 16962.9    0.00 16962.9 16870.3   92.62
   16 330    33       0   31703  313830       0  313830  310021  3808.7    0.00  1068.7 16962.8    0.00 16962.8 16870.2   92.62
   16 331    34       0   31703  313824       0  313824  310021  3803.3    0.00  1068.7 16962.7    0.00 16962.7 16870.1   92.62
   16 332    35       0   31703  313819       0  313819  310020  3799.3    0.00  1068.7 16962.6    0.00 16962.6 16870.0   92.62
   16 333    36       0   31703  313817       0  313817  310019  3798.4    0.00  1068.7 16962.6    0.00 16962.6 16869.9   92.62
[...]
   17 064   133       0   31854  313783       0  313783  310015  3768.8    0.00  1074.4 16962.0    0.00 16962.0 16869.4   92.61
   17 065   134       0   31854  313783       0  313783  310014  3768.4    0.00  1074.4 16961.9    0.00 16961.9 16869.3   92.61
   17 066   135       0   31854  313781       0  313781  310014  3766.8    0.00  1074.4 16961.9    0.00 16961.9 16869.3   92.61
   17 067   136       0   31854  313781       0  313781  310014  3766.7    0.00  1074.4 16961.9    0.00 16961.9 16869.3   92.61
   17 068   137       0   31854  313780       0  313780  310014  3765.9    0.00  1074.4 16961.9    0.00 16961.9 16869.3   92.60
   17 069   138       0   31854  313780       0  313780  310014  3765.8    0.00  1074.4 16961.9    0.00 16961.9 16869.3   92.60
   17 070   139       0   31854  313779       0  313779  310014  3765.7    0.00  1074.4 16961.9    0.00 16961.9 16869.3   92.60
   17 071   140       0   31854  313779       0  313779  310014  3765.7    0.00  1074.4 16961.9    0.00 16961.9 16869.3   92.60
   17 072   141       0   31854  313779       0  313779  310014  3765.7    0.00  1074.4 16961.9    0.00 16961.9 16869.3   92.60
   17 073   142       0   31854  313779       0  313779  310014  3765.7    0.00  1074.4 16961.9    0.00 16961.9 16869.3   92.60
   17 074   143       0   31854  313779       0  313779  310014  3765.7    0.00  1074.4 16961.9    0.00 16961.9 16869.3   92.60
   17 075   144       0   31854  313779       0  313779  310014  3765.7    0.00  1074.4 16961.9    0.00 16961.9 16869.3   92.60
   17 076   145       0   31854  313778       0  313778  310014  3764.8    0.00  1074.4 16961.8    0.00 16961.8 16869.2   92.60
   17 077   146       0   31855  313773       0  313773  310014  3759.7    0.00  1074.4 16961.8    0.00 16961.8 16869.2   92.60
   17 078   147       0   31856  313767       0  313767  310014  3753.0    0.00  1074.4 16961.8    0.00 16961.8 16869.2   92.61
   17 079   148       0   31856  313760       0  313760  310013  3747.1    0.00  1074.5 16961.7    0.00 16961.7 16869.1   92.60
   17 080   149       0   31856  313753       0  313753  310012  3740.9    0.00  1074.5 16961.6    0.00 16961.6 16869.0   92.60
   17 081   150       0   31856  313745       0  313745  310010  3735.0    0.00  1074.5 16961.5    0.00 16961.5 16868.9   92.59
   17 082   151       0   31857  313738       0  313738  310009  3729.8    0.00  1074.5 16961.4    0.00 16961.4 16868.8   92.58
   17 083   152       0   31857  313732       0  313732  310007  3724.8    0.00  1074.5 16961.3    0.00 16961.3 16868.7   92.57
   17 084   153       0   31857  313727       0  313727  310006  3720.5    0.00  1074.5 16961.2    0.00 16961.2 16868.6   92.57
   17 085   154       0   31857  313722       0  313722  310006  3716.8    0.00  1074.5 16961.1    0.00 16961.1 16868.6   92.56
   17 086   155       0   31857  313719       0  313719  310005  3713.7    0.00  1074.5 16961.1    0.00 16961.1 16868.5   92.56
   17 087   156       0   31857  313715       0  313715  310005  3710.8    0.00  1074.5 16961.0    0.00 16961.0 16868.5   92.56
   17 088   157       0   31857  313712       0  313712  310004  3708.0    0.00  1074.5 16961.0    0.00 16961.0 16868.4   92.55
   17 089   158       0   31857  313707       0  313707  310003  3704.8    0.00  1074.5 16960.9    0.00 16960.9 16868.3   92.54
   17 090   159       0   31857  313703       0  313703  310001  3701.3    0.00  1074.5 16960.8    0.00 16960.8 16868.2   92.53
   17 091   160       0   31857  313696       0  313696  309999  3696.9    0.00  1074.5 16960.6    0.00 16960.6 16868.1   92.52
   17 092   161       0   31857  313688       0  313688  309996  3691.7    0.00  1074.5 16960.4    0.00 16960.4 16867.9   92.50
   17 093   162       0   31857  313678       0  313678  309993  3685.7    0.00  1074.4 16960.2    0.00 16960.2 16867.7   92.47
   17 094   163       0   31857  313669       0  313669  309989  3679.4    0.00  1074.4 16960.0    0.00 16960.0 16867.5   92.45
   17 095   164       0   31857  313660       0  313660  309987  3672.9    0.00  1074.4 16959.8    0.00 16959.8 16867.4   92.43
   17 096   165       0   31857  313651       0  313651  309984  3666.8    0.00  1074.4 16959.6    0.00 16959.6 16867.2   92.41
   17 097   166       0   31857  313645       0  313645  309983  3661.4    0.00  1074.4 16959.5    0.00 16959.5 16867.1   92.39
   17 098   167       0   31857  313639       0  313639  309982  3656.6    0.00  1074.4 16959.4    0.00 16959.4 16867.1   92.38
   17 099   168       0   31858  313633       0  313633  309981  3652.1    0.00  1074.4 16959.4    0.00 16959.4 16867.0   92.37
   17 100   169       0   31858  313628       0  313628  309980  3647.6    0.00  1074.4 16959.2    0.00 16959.2 16866.9   92.36
   17 101   170       0   31858  313620       0  313620  309978  3642.7    0.00  1074.4 16959.1    0.00 16959.1 16866.8   92.34
   17 102   171       0   31858  313613       0  313613  309975  3637.5    0.00  1074.4 16958.9    0.00 16958.9 16866.6   92.31
   17 103   172       0   31858  313605       0  313605  309973  3632.4    0.00  1074.4 16958.8    0.00 16958.8 16866.5   92.29
   17 104   173       0   31858  313598       0  313598  309971  3627.4    0.00  1074.4 16958.6    0.00 16958.6 16866.3   92.27
   17 105   174       0   31858  313592       0  313592  309969  3623.0    0.00  1074.4 16958.4    0.00 16958.4 16866.2   92.25
   17 106   175       0   31858  313586       0  313586  309967  3618.9    0.00  1074.4 16958.3    0.00 16958.3 16866.1   92.23
   17 107   176       0   31858  313580       0  313580  309966  3614.4    0.00  1074.4 16958.2    0.00 16958.2 16866.0   92.21
   17 108   177       0   31858  313574       0  313574  309965  3609.9    0.00  1074.4 16958.1    0.00 16958.1 16865.9   92.19
   17 109   178       0   31858  313571       0  313571  309964  3606.3    0.00  1074.4 16958.1    0.00 16958.1 16865.9   92.19
   17 110   179       0   31859  313569       0  313569  309964  3604.5    0.00  1074.4 16958.1    0.00 16958.1 16865.9   92.18
   17 111   180       0   31859  313569       0  313569  309964  3604.5    0.00  1074.4 16958.1    0.00 16958.1 16865.9   92.18
   17 112   181       0   31859  313569       0  313569  309964  3604.5    0.00  1074.4 16958.1    0.00 16958.1 16865.9   92.18
   17 113   182       0   31859  313569       0  313569  309964  3604.5    0.00  1074.4 16958.1    0.00 16958.1 16865.9   92.18
   17 114   183       0   31859  313569       0  313569  309964  3604.5    0.00  1074.4 16958.1    0.00 16958.1 16865.9   92.18
   17 115   184       0   31859  313569       0  313569  309964  3604.5    0.00  1074.4 16958.1    0.00 16958.1 16865.9   92.18
   17 116   185       0   31859  313568       0  313568  309965  3603.4    0.00  1074.4 16958.1    0.00 16958.1 16865.9   92.18
   17 117   186       0   31859  313568       0  313568  309965  3603.3    0.00  1074.4 16958.1    0.00 16958.1 16865.9   92.18
   17 118   187       0   31859  313568       0  313568  309965  3603.3    0.00  1074.4 16958.1    0.00 16958.1 16865.9   92.18
   17 119   188       0   31859  313568       0  313568  309965  3603.3    0.00  1074.4 16958.1    0.00 16958.1 16865.9   92.18
   17 120   189       0   31859  313568       0  313568  309965  3603.3    0.00  1074.4 16958.1    0.00 16958.1 16865.9   92.18
   17 121   190       0   31859  313568       0  313568  309965  3603.3    0.00  1074.4 16958.1    0.00 16958.1 16865.9   92.18
   17 122   191       0   31859  313567       0  313567  309965  3602.6    0.00  1074.4 16958.1    0.00 16958.1 16865.9   92.18
   17 123   192       0   31859  313565       0  313565  309964  3601.4    0.00  1074.4 16958.0    0.00 16958.0 16865.8   92.17
   17 124   193       0   31858  313561       0  313561  309962  3599.4    0.00  1074.4 16957.9    0.00 16957.9 16865.7   92.16
   17 125   194       0   31858  313557       0  313557  309960  3596.7    0.00  1074.4 16957.8    0.00 16957.8 16865.6   92.14
   17 126   195       0   31858  313551       0  313551  309957  3593.5    0.00  1074.4 16957.6    0.00 16957.6 16865.5   92.12
   17 127   196       0   31858  313544       0  313544  309955  3589.5    0.00  1074.4 16957.4    0.00 16957.4 16865.3   92.09
   17 128   197       0   31858  313537       0  313537  309952  3585.0    0.00  1074.4 16957.2    0.00 16957.2 16865.1   92.06
   17 129   198       0   31858  313529       0  313529  309949  3580.3    0.00  1074.4 16957.0    0.00 16957.0 16865.0   92.03
   17 130   199       0   31857  313522       0  313522  309946  3575.3    0.00  1074.4 16956.8    0.00 16956.8 16864.8   92.01
   17 131   200       0   31857  313515       0  313515  309944  3570.5    0.00  1074.4 16956.7    0.00 16956.7 16864.7   91.98
   17 132   201       0   31857  313508       0  313508  309942  3566.0    0.00  1074.4 16956.5    0.00 16956.5 16864.6   91.96
   17 133   202       0   31857  313501       0  313501  309939  3561.3    0.00  1074.4 16956.4    0.00 16956.4 16864.4   91.93
   17 134   203       0   31857  313492       0  313492  309936  3556.1    0.00  1074.4 16956.1    0.00 16956.1 16864.2   91.89
   17 135   204       0   31857  313481       0  313481  309931  3550.2    0.00  1074.4 16955.8    0.00 16955.8 16864.0   91.85
   17 136   205       0   31856  313469       0  313469  309926  3543.1    0.00  1074.3 16955.5    0.00 16955.5 16863.7   91.80
   17 137   206       0   31856  313456       0  313456  309921  3535.0    0.00  1074.3 16955.1    0.00 16955.1 16863.4   91.74
   17 138   207       0   31856  313443       0  313443  309916  3526.7    0.00  1074.3 16954.8    0.00 16954.8 16863.1   91.68
   17 139   208       0   31856  313430       0  313430  309911  3518.2    0.00  1074.3 16954.4    0.00 16954.4 16862.8   91.62
   17 140   209       0   31856  313416       0  313416  309906  3509.7    0.00  1074.3 16954.1    0.00 16954.1 16862.5   91.56
   17 141   210       0   31855  313402       0  313402  309901  3501.1    0.00  1074.3 16953.7    0.00 16953.7 16862.2   91.50
   17 142   211       0   31855  313389       0  313389  309896  3492.6    0.00  1074.3 16953.4    0.00 16953.4 16861.9   91.44
   17 143   212       0   31855  313376       0  313376  309892  3484.0    0.00  1074.3 16953.1    0.00 16953.1 16861.7   91.38
   17 144   213       0   31855  313363       0  313363  309887  3475.5    0.00  1074.3 16952.7    0.00 16952.7 16861.4   91.32
   17 145   214       0   31855  313350       0  313350  309883  3467.1    0.00  1074.2 16952.4    0.00 16952.4 16861.2   91.27
   17 146   215       0   31855  313338       0  313338  309879  3458.6    0.00  1074.2 16952.1    0.00 16952.1 16860.9   91.21
   17 147   216       0   31855  313324       0  313324  309874  3450.0    0.00  1074.2 16951.8    0.00 16951.8 16860.6   91.15
   17 148   217       0   31855  313311       0  313311  309870  3441.1    0.00  1074.2 16951.4    0.00 16951.4 16860.4   91.09
   17 149   218       0   31855  313297       0  313297  309865  3432.0    0.00  1074.2 16951.1    0.00 16951.1 16860.1   91.02
   17 150   219       0   31855  313282       0  313282  309859  3422.5    0.00  1074.2 16950.7    0.00 16950.7 16859.7   90.94
   17 151   220       0   31855  313264       0  313264  309852  3412.2    0.00  1074.2 16950.2    0.00 16950.2 16859.3   90.86
   17 152   221       0   31854  313245       0  313245  309844  3400.8    0.00  1074.2 16949.7    0.00 16949.7 16858.9   90.77
   17 153   222       0   31854  313225       0  313225  309836  3388.4    0.00  1074.2 16949.1    0.00 16949.1 16858.4   90.67
   17 154   223       0   31854  313204       0  313204  309829  3375.1    0.00  1074.2 16948.6    0.00 16948.6 16858.0   90.57
   17 155   224       0   31854  313182       0  313182  309821  3361.1    0.00  1074.1 16948.0    0.00 16948.0 16857.5   90.46
   17 156   225       0   31854  313162       0  313162  309815  3347.3    0.00  1074.1 16947.5    0.00 16947.5 16857.1   90.37
   17 157   226       0   31855  313142       0  313142  309809  3333.4    0.00  1074.2 16947.1    0.00 16947.1 16856.8   90.27
   17 158   227       0   31855  313124       0  313124  309804  3320.1    0.00  1074.2 16946.6    0.00 16946.6 16856.5   90.18
   17 159   228       0   31856  313107       0  313107  309800  3307.2    0.00  1074.2 16946.3    0.00 16946.3 16856.2   90.10
   17 160   229       0   31856  313092       0  313092  309796  3295.6    0.00  1074.2 16946.0    0.00 16946.0 16856.0   90.03
   17 161   230       0   31857  313077       0  313077  309792  3285.0    0.00  1074.2 16945.7    0.00 16945.7 16855.7   89.95
   17 162   231       0   31857  313063       0  313063  309788  3275.1    0.00  1074.2 16945.4    0.00 16945.4 16855.5   89.88
   17 163   232       0   31857  313049       0  313049  309783  3265.5    0.00  1074.2 16945.0    0.00 16945.0 16855.2   89.81
   17 164   233       0   31857  313033       0  313033  309778  3255.6    0.00  1074.2 16944.6    0.00 16944.6 16854.8   89.73
   17 165   234       0   31857  313016       0  313016  309771  3245.1    0.00  1074.2 16944.1    0.00 16944.1 16854.5   89.64
   17 166   235       0   31857  312999       0  312999  309765  3233.9    0.00  1074.2 16943.6    0.00 16943.6 16854.1   89.55
   17 167   236       0   31857  312980       0  312980  309758  3221.7    0.00  1074.2 16943.2    0.00 16943.2 16853.7   89.45
   17 168   237       0   31858  312961       0  312961  309752  3208.8    0.00  1074.2 16942.7    0.00 16942.7 16853.3   89.35
   17 169   238       0   31858  312942       0  312942  309747  3195.1    0.00  1074.2 16942.2    0.00 16942.2 16853.0   89.25
   17 170   239       0   31859  312923       0  312923  309742  3180.6    0.00  1074.2 16941.8    0.00 16941.8 16852.7   89.14
   17 171   240       0   31859  312903       0  312903  309738  3165.3    0.00  1074.2 16941.4    0.00 16941.4 16852.4   89.03
   17 172   241       0   31860  312883       0  312883  309733  3149.1    0.00  1074.2 16941.0    0.00 16941.0 16852.1   88.91
   17 173   242       0   31861  312861       0  312861  309729  3132.1    0.00  1074.2 16940.5    0.00 16940.5 16851.7   88.78
   17 174   243       0   31862  312837       0  312837  309724  3113.3    0.00  1074.3 16940.0    0.00 16940.0 16851.4   88.64
   17 175   244       0   31864  312812       0  312812  309719  3092.6    0.00  1074.3 16939.5    0.00 16939.5 16851.0   88.48
   17 176   245       0   31866  312784       0  312784  309715  3069.7    0.00  1074.3 16938.9    0.00 16938.9 16850.6   88.30
   17 177   246       0   31867  312756       0  312756  309711  3045.5    0.00  1074.4 16938.4    0.00 16938.4 16850.3   88.10
   17 178   247       0   31869  312729       0  312729  309707  3021.7    0.00  1074.4 16937.9    0.00 16937.9 16850.0   87.91
   17 179   248       0   31872  312696       0  312696  309705  2991.5    0.00  1074.5 16937.3    0.00 16937.3 16849.7   87.66
   17 180   249       0   31875  312661       0  312661  309703  2958.5    0.00  1074.6 16936.8    0.00 16936.8 16849.4   87.36
   17 181   250       0   31878  312625       0  312625  309701  2924.3    0.00  1074.7 16936.2    0.00 16936.2 16849.2   87.05
   17 182   251       0   31881  312589       0  312589  309699  2889.1    0.00  1074.7 16935.6    0.00 16935.6 16848.9   86.71
   17 183   252       0   31884  312552       0  312552  309699  2853.6    0.00  1074.8 16935.1    0.00 16935.1 16848.7   86.35
   17 184   253       0   31887  312515       0  312515  309699  2816.9    0.00  1074.9 16934.5    0.00 16934.5 16848.5   85.96
   17 185   254       0   31891  312477       0  312477  309699  2777.7    0.00  1075.1 16933.9    0.00 16933.9 16848.4   85.52
   17 186   255       0   31895  312439       0  312439  309700  2738.6    0.00  1075.2 16933.3    0.00 16933.3 16848.3   85.06
   17 187   256       0   31899  312400       0  312400  309701  2698.9    0.00  1075.3 16932.7    0.00 16932.7 16848.1   84.57
   17 188   257       0   31903  312360       0  312360  309701  2658.8    0.00  1075.4 16932.0    0.00 16932.0 16848.0   84.06
   17 189   258       0   31907  312321       0  312321  309701  2619.4    0.00  1075.5 16931.3    0.00 16931.3 16847.8   83.52
   17 190   259       0   31910  312281       0  312281  309700  2580.3    0.00  1075.7 16930.5    0.00 16930.5 16847.6   82.95
   17 191   260       0   31915  312233       0  312233  309701  2532.9    0.00  1075.8 16929.7    0.00 16929.7 16847.4   82.26
   17 192   261       0   31919  312183       0  312183  309701  2482.7    0.00  1075.9 16928.7    0.00 16928.7 16847.2   81.51
   17 193   262       0   31924  312131       0  312131  309702  2429.1    0.00  1076.1 16927.7    0.00 16927.7 16847.0   80.69
   17 194   263       0   31928  312080       0  312080  309703  2376.6    0.00  1076.2 16926.7    0.00 16926.7 16846.9   79.85
   17 195   264       0   31933  312030       0  312030  309705  2325.8    0.00  1076.4 16925.8    0.00 16925.8 16846.8   79.00
   17 196   265       0   31936  311991       0  311991  309705  2286.4    0.00  1076.5 16924.9    0.00 16924.9 16846.6   78.30
   17 197   266       0   31939  311952       0  311952  309705  2247.3    0.00  1076.6 16924.1    0.00 16924.1 16846.5   77.59
   17 198   267       0   31942  311915       0  311915  309705  2210.0    0.00  1076.7 16923.3    0.00 16923.3 16846.4   76.90
   17 199   268       0   31945  311882       0  311882  309705  2176.5    0.00  1076.8 16922.5    0.00 16922.5 16846.3   76.26
   17 200   269       0   31948  311847       0  311847  309704  2142.9    0.00  1076.9 16921.7    0.00 16921.7 16846.1   75.59
   17 201   270       0   31951  311811       0  311811  309703  2107.6    0.00  1077.0 16920.8    0.00 16920.8 16845.9   74.86
   17 202   271       0   31953  311774       0  311774  309701  2072.6    0.00  1077.1 16919.8    0.00 16919.8 16845.7   74.12
   17 203   272       0   31956  311737       0  311737  309699  2038.1    0.00  1077.2 16918.9    0.00 16918.9 16845.5   73.37
   17 204   273       0   31959  311695       0  311695  309696  1998.3    0.00  1077.3 16917.8    0.00 16917.8 16845.2   72.50
   17 205   274       0   31962  311656       0  311656  309694  1962.4    0.00  1077.4 16916.7    0.00 16916.7 16845.0   71.70
   17 206   275       0   31964  311618       0  311618  309692  1925.4    0.00  1077.5 16915.7    0.00 16915.7 16844.8   70.87
   17 207   276       0   31966  311587       0  311587  309690  1896.5    0.00  1077.6 16914.8    0.00 16914.8 16844.6   70.19
   17 208   277       0   31968  311560       0  311560  309687  1872.2    0.00  1077.7 16914.0    0.00 16914.0 16844.4   69.62
   17 209   278       0   31970  311535       0  311535  309685  1850.1    0.00  1077.7 16913.3    0.00 16913.3 16844.2   69.09
   17 210   279       0   31971  311508       0  311508  309683  1825.1    0.00  1077.8 16912.5    0.00 16912.5 16844.0   68.48
   17 211   280       0   31973  311478       0  311478  309681  1796.6    0.00  1077.9 16911.6    0.00 16911.6 16843.8   67.77
   17 212   281       0   31976  311442       0  311442  309679  1763.6    0.00  1078.0 16910.6    0.00 16910.6 16843.6   66.94
   17 213   282       0   31978  311405       0  311405  309675  1729.4    0.00  1078.1 16909.4    0.00 16909.4 16843.3   66.06
   17 214   283       0   31981  311362       0  311362  309672  1690.0    0.00  1078.2 16908.1    0.00 16908.1 16843.1   65.02
   17 215   284       0   31984  311316       0  311316  309668  1648.0    0.00  1078.3 16906.7    0.00 16906.7 16842.8   63.91
   17 216   285       0   31987  311271       0  311271  309663  1607.9    0.00  1078.4 16905.2    0.00 16905.2 16842.4   62.81
   17 217   286       0   31990  311226       0  311226  309659  1567.0    0.00  1078.6 16903.8    0.00 16903.8 16842.1   61.67
   17 218   287       0   31992  311183       0  311183  309654  1529.6    0.00  1078.7 16902.4    0.00 16902.4 16841.8   60.60
   17 219   288       0   31994  311146       0  311146  309648  1498.2    0.00  1078.8 16901.1    0.00 16901.1 16841.4   59.69
