*Soil Inorganic Nitrogen daily output file

*DSSAT Cropping System Model Ver. 4.8.5.000 -release  FEB 02, 2026 11:47:14

*RUN   1        : 1                         WHAPS048 TUDU1701    1
 MODEL          : WHAPS048 - Wheat
 EXPERIMENT     : TUDU1701 WH
 DATA PATH      :
 TREATMENT  1   : 1                         WHAPS048
  
!                                                                                                                                      NO3 (ppm) at soil dep. (cm):                                                    NH4 (ppm) at soil dep. (cm):                                                    Total Inorganic N @dep(ppm):
!                                                                                                                                       0-5    5-15   15-20   20-30   30-40   40-50   50-60   60-70   70-90  90-210     0-5    5-15   15-20   20-30   30-40   40-50   50-60   60-70   70-90  90-210     0-5    5-15   15-20   20-30   30-40   40-50   50-60   60-70   70-90  90-210
@YEAR DOY   DAS  NAPC  NI#M    NIAD    NITD    NHTD   NURTD    NMNC    NITC    NDNC    NIMC    AMLC   NNMNC    NUCM    NLCC    TDNC    NI1D    NI2D    NI3D    NI4D    NI5D    NI6D    NI7D    NI8D    NI9D    NI10    NH1D    NH2D    NH3D    NH4D    NH5D    NH6D    NH7D    NH8D    NH9D    NH10    NT1D    NT2D    NT3D    NT4D    NT5D    NT6D    NT7D    NT8D    NT9D    NT10    
   16 297     0     0     0   102.6    93.5     9.1     0.0    0.00    0.00    0.00    0.00    0.00    0.00    0.00    0.00    0.00    3.10     3.1     3.1    3.10    3.10    3.10    3.10    3.10    3.10    3.10    0.30    0.30    0.30    0.30    0.30    0.30    0.30    0.30    0.30    0.30    3.40    3.40    3.40    3.40    3.40    3.40    3.40    3.40    3.40    3.40
   16 298     1     0     0   102.5    95.0     7.6     0.0    0.23    1.43    0.00    0.31    0.00   -0.07    0.00    0.00    0.00    2.98     3.2     3.1    3.14    3.14    3.14    3.14    3.15    3.15    3.15    0.11    0.10    0.27    0.27    0.27    0.26    0.26    0.26    0.26    0.26    3.08    3.32    3.41    3.41    3.41    3.41    3.41    3.41    3.41    3.41
   16 299     2     0     0   102.5    96.0     6.4     0.0    0.48    2.60    0.00    0.60    0.00   -0.12    0.00    0.00    0.00    3.03     3.2     3.2    3.16    3.16    3.17    3.18    3.18    3.18    3.19    0.00    0.00    0.24    0.24    0.25    0.23    0.23    0.23    0.23    0.23    3.03    3.25    3.41    3.40    3.41    3.41    3.41    3.41    3.41    3.41
   16 300     3     0     0   102.4    96.8     5.6     0.0    0.72    3.61    0.00    0.87    0.00   -0.15    0.00    0.00    0.00    2.89     3.1     3.3    3.22    3.19    3.20    3.21    3.21    3.21    3.22    0.00    0.00    0.22    0.21    0.22    0.21    0.21    0.21    0.20    0.20    2.89    3.08    3.48    3.44    3.41    3.41    3.41    3.42    3.41    3.42
   16 301     4     0     0   102.4    97.4     5.0     0.0    0.95    4.46    0.00    1.10    0.00   -0.15    0.00    0.00    0.00    2.88     2.9     3.3    3.26    3.21    3.23    3.23    3.24    3.24    3.25    0.00    0.00    0.20    0.19    0.21    0.19    0.19    0.19    0.18    0.18    2.88    2.95    3.49    3.46    3.41    3.41    3.42    3.42    3.42    3.42
   16 302     5     0     0   102.5    97.9     4.5     0.0    1.15    5.16    0.00    1.26    0.00   -0.12    0.00    0.00    0.00    3.05     2.8     3.3    3.27    3.22    3.24    3.25    3.26    3.26    3.27    0.00    0.00    0.19    0.18    0.19    0.17    0.17    0.17    0.16    0.16    3.05    2.85    3.49    3.44    3.41    3.41    3.42    3.43    3.42    3.42
   16 303     6     0     0   102.5    98.4     4.1     0.0    1.31    5.75    0.00    1.37    0.00   -0.05    0.00    0.00    0.00    3.05     2.8     3.3    3.28    3.24    3.26    3.27    3.28    3.28    3.29    0.00    0.00    0.17    0.16    0.17    0.16    0.16    0.15    0.14    0.14    3.05    2.78    3.49    3.45    3.42    3.42    3.42    3.43    3.42    3.43
   16 304     7     0     0   102.6    98.8     3.7     0.0    1.46    6.25    0.00    1.43    0.00    0.03    0.00    0.00    0.00    3.07     2.7     3.3    3.30    3.26    3.28    3.28    3.29    3.30    3.30    0.00    0.00    0.16    0.15    0.16    0.14    0.14    0.14    0.13    0.13    3.07    2.73    3.49    3.45    3.42    3.42    3.43    3.44    3.43    3.43
   16 305     8     0     0   102.7    99.2     3.4     0.0    1.57    6.68    0.00    1.46    0.00    0.11    0.00    0.00    0.00    3.11     2.7     3.3    3.31    3.27    3.29    3.30    3.31    3.31    3.32    0.00    0.00    0.15    0.14    0.15    0.13    0.13    0.13    0.12    0.12    3.11    2.70    3.49    3.45    3.42    3.42    3.43    3.44    3.43    3.44
   16 306     9     0     0   102.8    99.6     3.2     0.0    1.67    7.06    0.00    1.47    0.00    0.20    0.00    0.00    0.00    3.15     2.7     3.3    3.32    3.28    3.30    3.31    3.32    3.32    3.33    0.00    0.00    0.14    0.13    0.14    0.12    0.12    0.12    0.11    0.11    3.15    2.68    3.48    3.45    3.42    3.42    3.43    3.44    3.43    3.44
   16 307    10     0     0   102.9   100.0     2.9     0.0    1.76    7.40    0.00    1.47    0.00    0.29    0.00    0.00    0.00    3.20     2.7     3.3    3.32    3.29    3.31    3.32    3.33    3.33    3.34    0.00    0.00    0.13    0.12    0.13    0.11    0.11    0.11    0.10    0.10    3.20    2.67    3.48    3.44    3.42    3.42    3.43    3.44    3.44    3.44
   16 308    11     0     0   102.9   100.3     2.7     0.0    1.85    7.71    0.00    1.47    0.00    0.38    0.00    0.00    0.00    3.23     2.7     3.4    3.33    3.30    3.32    3.33    3.34    3.34    3.35    0.00    0.00    0.12    0.11    0.12    0.10    0.10    0.10    0.09    0.09    3.23    2.66    3.47    3.44    3.42    3.42    3.43    3.45    3.44    3.45
   16 309    12     0     0   103.0   100.5     2.5     0.0    1.92    7.99    0.00    1.47    0.00    0.45    0.00    0.00    0.00    3.27     2.7     3.4    3.34    3.31    3.33    3.34    3.35    3.35    3.36    0.00    0.00    0.11    0.10    0.11    0.10    0.10    0.09    0.09    0.09    3.27    2.65    3.47    3.44    3.42    3.42    3.43    3.45    3.44    3.45
   16 310    13     0     0   103.1   100.8     2.3     0.0    1.98    8.24    0.00    1.47    0.00    0.51    0.00    0.00    0.00    2.43     3.0     3.5    3.36    3.32    3.33    3.35    3.36    3.36    3.37    0.00    0.00    0.10    0.09    0.10    0.09    0.09    0.09    0.08    0.08    2.43    3.01    3.55    3.46    3.42    3.42    3.43    3.45    3.44    3.45
   16 311    14     0     0   103.1   101.0     2.1     0.0    2.05    8.47    0.00    1.47    0.00    0.59    0.00    0.00    0.00    1.70     3.0     3.7    3.57    3.36    3.34    3.35    3.37    3.37    3.38    0.00    0.00    0.09    0.09    0.09    0.08    0.08    0.08    0.07    0.07    1.70    2.99    3.83    3.66    3.46    3.42    3.43    3.45    3.44    3.45
   16 312    15     0     0   103.2   101.2     2.0     0.0    2.13    8.69    0.00    1.47    0.00    0.66    0.00    0.00    0.00    1.56     2.7     3.4    3.50    3.39    3.40    3.47    3.50    3.49    3.40    0.00    0.00    0.09    0.08    0.09    0.08    0.08    0.07    0.07    0.07    1.56    2.74    3.48    3.59    3.47    3.48    3.54    3.57    3.55    3.46
   16 313    16     0     0   103.1   101.3     1.8     0.0    2.18    8.89    0.00    1.47    0.00    0.72    0.18    0.00    0.00    1.32     2.6     3.2    3.48    3.40    3.41    3.47    3.50    3.49    3.52    0.00    0.00    0.08    0.08    0.08    0.07    0.07    0.07    0.06    0.06    1.32    2.59    3.31    3.55    3.48    3.48    3.54    3.57    3.55    3.59
   16 314    17     0     0   103.1   101.4     1.7     0.0    2.23    9.06    0.00    1.47    0.00    0.76    0.18    0.00    0.00    1.21     2.5     3.3    3.51    3.43    3.44    3.47    3.51    3.49    3.53    0.00    0.00    0.08    0.07    0.07    0.06    0.06    0.06    0.06    0.06    1.21    2.55    3.35    3.58    3.50    3.51    3.54    3.57    3.55    3.59
   16 315    18     0     0   103.2   101.6     1.6     0.0    2.28    9.22    0.00    1.47    0.00    0.81    0.19    0.00    0.00    0.96     2.4     3.4    3.59    3.49    3.48    3.51    3.54    3.50    3.53    0.00    0.00    0.07    0.07    0.07    0.06    0.06    0.06    0.05    0.05    0.96    2.42    3.44    3.65    3.56    3.54    3.56    3.59    3.55    3.59
   16 316    19     0     0   103.2   101.7     1.5     0.0    2.31    9.36    0.00    1.47    0.00    0.84    0.19    0.00    0.00    0.79     2.2     3.3    3.64    3.58    3.54    3.55    3.56    3.52    3.54    0.00    0.00    0.07    0.06    0.07    0.06    0.05    0.05    0.05    0.05    0.79    2.22    3.40    3.71    3.65    3.59    3.61    3.62    3.57    3.58
   16 317    20     0     0   103.2   101.8     1.4     0.0    2.34    9.49    0.00    1.47    0.00    0.87    0.24    0.00    0.00    0.71     2.0     2.9    3.38    3.47    3.48    3.50    3.52    3.51    3.53    0.00    0.00    0.07    0.06    0.06    0.05    0.05    0.05    0.05    0.05    0.71    1.98    2.95    3.43    3.53    3.53    3.56    3.58    3.55    3.57
   16 318    21     0     0   102.6   101.3     1.3     0.0    2.37    9.61    0.00    1.47    0.00    0.91    0.27    0.64    0.00    0.66     1.9     2.7    3.25    3.41    3.45    3.50    3.52    3.50    3.53    0.00    0.00    0.06    0.06    0.06    0.05    0.05    0.05    0.04    0.04    0.66    1.86    2.73    3.31    3.46    3.49    3.55    3.57    3.54    3.57
   16 319    22     0     0   102.3   101.0     1.2     0.0    2.40    9.72    0.00    1.47    0.00    0.93    0.28    0.96    0.00    0.66     1.8     2.6    3.19    3.38    3.44    3.50    3.52    3.50    3.53    0.00    0.00    0.06    0.05    0.05    0.05    0.05    0.04    0.04    0.04    0.66    1.81    2.62    3.25    3.43    3.49    3.54    3.56    3.54    3.56
   16 320    23     0     0   102.3   101.1     1.1     0.0    2.42    9.83    0.00    1.47    0.00    0.96    0.28    0.96    0.00    0.59     1.8     2.6    3.21    3.40    3.45    3.50    3.53    3.51    3.53    0.00    0.00    0.06    0.05    0.05    0.04    0.04    0.04    0.04    0.03    0.59    1.77    2.65    3.26    3.45    3.50    3.54    3.57    3.55    3.56
   16 321    24     0     0   102.3   101.2     1.1     0.0    2.44    9.92    0.00    1.47    0.00    0.97    0.28    0.96    0.00    0.45     1.6     2.6    3.27    3.46    3.49    3.52    3.54    3.51    3.55    0.00    0.00    0.05    0.05    0.05    0.04    0.04    0.04    0.03    0.03    0.45    1.62    2.69    3.31    3.51    3.54    3.56    3.58    3.55    3.58
   16 322    25     0     0   100.9    99.9     1.0     0.0    2.46   10.01    0.00    1.47    0.00    1.00    0.30    2.31    0.00    0.40     1.4     2.3    3.01    3.33    3.43    3.49    3.52    3.50    3.54    0.00    0.00    0.05    0.05    0.05    0.04    0.04    0.04    0.03    0.03    0.40    1.43    2.31    3.05    3.38    3.47    3.52    3.56    3.53    3.57
   16 323    26     0     0   100.8    99.8     1.0     0.0    2.51   10.09    0.00    1.47    0.00    1.04    0.52    2.31    0.00    0.19     1.3     2.2    3.02    3.37    3.47    3.51    3.53    3.52    3.54    0.00    0.00    0.05    0.04    0.04    0.04    0.04    0.03    0.03    0.03    0.19    1.26    2.27    3.06    3.41    3.51    3.54    3.56    3.55    3.56
   16 324    27     0     0   100.8    99.8     0.9     0.0    2.58   10.19    0.00    1.47    0.00    1.11    0.60    2.31    0.00    0.13     1.1     2.1    3.00    3.43    3.53    3.56    3.56    3.52    3.55    0.00    0.00    0.05    0.04    0.04    0.03    0.03    0.03    0.03    0.03    0.13    1.06    2.16    3.04    3.47    3.57    3.59    3.59    3.55    3.57
   16 325    28     0     0    99.0    98.0     0.9     0.0    2.68   10.28    0.00    1.47    0.00    1.20    0.66    4.15    0.00    0.10     0.9     1.7    2.65    3.18    3.40    3.48    3.50    3.50    3.53    0.00    0.00    0.05    0.04    0.04    0.03    0.03    0.03    0.03    0.03    0.10    0.90    1.78    2.69    3.22    3.43    3.51    3.54    3.53    3.56
   16 326    29     0     0    98.1    97.2     1.0     0.0    2.78   10.38    0.00    1.49    0.00    1.29    0.74    4.97    0.00    0.09     0.8     1.6    2.50    3.07    3.33    3.44    3.49    3.49    3.52    0.00    0.00    0.04    0.04    0.04    0.03    0.03    0.03    0.03    0.03    0.09    0.81    1.63    2.54    3.11    3.36    3.47    3.52    3.52    3.55
   16 327    30     0     0    97.8    96.9     1.0     0.0    2.89   10.48    0.00    1.51    0.00    1.38    0.83    5.29    0.00    0.05     0.7     1.5    2.44    3.02    3.31    3.43    3.49    3.49    3.52    0.00    0.00    0.04    0.04    0.04    0.03    0.03    0.03    0.03    0.03    0.05    0.74    1.57    2.47    3.06    3.34    3.47    3.52    3.52    3.55
   16 328    31     0     0    97.7    96.8     1.0     0.0    3.00   10.58    0.00    1.54    0.00    1.47    0.91    5.37    0.00    0.03     0.7     1.5    2.42    3.01    3.30    3.43    3.49    3.48    3.52    0.00    0.00    0.04    0.04    0.04    0.03    0.03    0.03    0.03    0.03    0.03    0.69    1.56    2.46    3.05    3.34    3.46    3.52    3.52    3.55
   16 329    32     0     0    97.8    96.8     1.0     0.0    3.10   10.68    0.01    1.55    0.00    1.56    0.98    5.37    0.00    0.03     0.7     1.5    2.43    3.01    3.30    3.43    3.49    3.48    3.52    0.00    0.00    0.04    0.03    0.04    0.03    0.03    0.03    0.03    0.03    0.03    0.66    1.58    2.46    3.05    3.34    3.46    3.52    3.51    3.55
   16 330    33     0     0    97.8    96.8     1.0     0.0    3.21   10.78    0.01    1.56    0.00    1.65    1.04    5.37    0.00    0.01     0.6     1.6    2.43    3.01    3.30    3.43    3.49    3.49    3.52    0.00    0.00    0.04    0.03    0.04    0.03    0.03    0.03    0.03    0.03    0.01    0.62    1.60    2.47    3.05    3.34    3.46    3.52    3.52    3.55
   16 331    34     0     0    97.8    96.8     1.0     0.0    3.32   10.88    0.01    1.58    0.00    1.74    1.10    5.37    0.00    0.01     0.6     1.6    2.44    3.01    3.31    3.43    3.49    3.49    3.52    0.00    0.00    0.04    0.03    0.04    0.03    0.03    0.03    0.03    0.03    0.01    0.58    1.61    2.47    3.05    3.34    3.46    3.52    3.52    3.55
   16 332    35     0     0    97.9    96.9     1.0     0.0    3.43   10.98    0.01    1.60    0.00    1.83    1.15    5.37    0.00    0.01     0.5     1.6    2.44    3.02    3.31    3.43    3.49    3.49    3.52    0.00    0.00    0.04    0.03    0.03    0.03    0.03    0.03    0.03    0.03    0.01    0.54    1.61    2.47    3.05    3.34    3.47    3.53    3.52    3.56
   16 333    36     0     0    97.9    96.9     1.0     0.0    3.51   11.08    0.01    1.60    0.00    1.91    1.19    5.37    0.00    0.02     0.5     1.6    2.45    3.02    3.31    3.43    3.49    3.49    3.52    0.00    0.00    0.03    0.03    0.03    0.03    0.03    0.03    0.03    0.03    0.02    0.52    1.63    2.48    3.05    3.34    3.47    3.53    3.52    3.56
   16 334    37     0     0    97.9    97.0     0.9     0.0    3.57   11.17    0.01    1.60    0.00    1.97    1.24    5.37    0.00    0.01     0.5     1.6    2.45    3.02    3.31    3.43    3.49    3.49    3.53    0.00    0.00    0.03    0.03    0.03    0.03    0.03    0.03    0.03    0.03    0.01    0.50    1.64    2.48    3.05    3.34    3.46    3.52    3.52    3.56
   16 335    38     0     0    97.9    97.0     0.9     0.0    3.59   11.26    0.01    1.60    0.00    1.99    1.28    5.37    0.00    0.01     0.5     1.6    2.45    3.02    3.31    3.44    3.49    3.49    3.53    0.00    0.00    0.03    0.03    0.03    0.03    0.03    0.03    0.03    0.03    0.01    0.48    1.64    2.48    3.05    3.34    3.46    3.52    3.52    3.56
   16 336    39     0     0    97.9    97.0     0.8     0.0    3.60   11.33    0.01    1.60    0.00    2.00    1.32    5.37    0.00    0.01     0.5     1.6    2.45    3.02    3.31    3.44    3.49    3.49    3.53    0.00    0.00    0.03    0.02    0.03    0.02    0.03    0.03    0.03    0.03    0.01    0.47    1.65    2.48    3.05    3.33    3.46    3.52    3.52    3.56
   16 337    40     0     0    97.8    97.1     0.8     0.0    3.60   11.39    0.01    1.60    0.00    2.01    1.36    5.37    0.00    0.01     0.5     1.6    2.46    3.02    3.31    3.44    3.49    3.49    3.53    0.00    0.00    0.03    0.02    0.02    0.02    0.02    0.03    0.02    0.03    0.01    0.45    1.66    2.48    3.05    3.33    3.46    3.52    3.52    3.55
   16 338    41     0     0    97.8    97.1     0.7     0.0    3.61   11.45    0.01    1.60    0.00    2.01    1.40    5.37    0.00    0.02     0.4     1.6    2.46    3.02    3.31    3.44    3.49    3.49    3.53    0.00    0.00    0.02    0.02    0.02    0.02    0.02    0.02    0.02    0.02    0.02    0.44    1.67    2.48    3.05    3.33    3.46    3.52    3.51    3.55
   16 339    42     0     0    97.7    97.1     0.7     0.0    3.61   11.50    0.01    1.60    0.00    2.01    1.44    5.37    0.00    0.01     0.4     1.6    2.46    3.02    3.31    3.44    3.50    3.49    3.53    0.00    0.00    0.02    0.02    0.02    0.02    0.02    0.02    0.02    0.02    0.01    0.43    1.67    2.48    3.05    3.33    3.46    3.52    3.51    3.55
   16 340    43     0     0    97.7    97.1     0.6     0.0    3.61   11.55    0.01    1.60    0.00    2.02    1.48    5.37    0.00    0.01     0.4     1.7    2.46    3.02    3.31    3.44    3.50    3.49    3.53    0.00    0.00    0.02    0.02    0.02    0.02    0.02    0.02    0.02    0.02    0.01    0.41    1.67    2.48    3.05    3.33    3.46    3.52    3.51    3.55
   16 341    44     0     0    97.7    97.1     0.6     0.0    3.62   11.60    0.01    1.60    0.00    2.02    1.51    5.37    0.00    0.00     0.4     1.7    2.47    3.03    3.31    3.44    3.50    3.49    3.53    0.00    0.00    0.02    0.02    0.02    0.02    0.02    0.02    0.02    0.02    0.00    0.39    1.67    2.48    3.05    3.33    3.46    3.52    3.51    3.55
   16 342    45     0     0    97.6    97.1     0.5     0.0    3.62   11.64    0.01    1.60    0.00    2.02    1.54    5.37    0.00    0.00     0.4     1.7    2.47    3.03    3.31    3.44    3.50    3.49    3.53    0.00    0.00    0.02    0.02    0.02    0.02    0.02    0.02    0.02    0.02    0.00    0.38    1.67    2.48    3.04    3.33    3.45    3.52    3.51    3.55
   16 343    46     0     0    97.6    97.1     0.5     0.0    3.62   11.67    0.01    1.60    0.00    2.02    1.57    5.37    0.00    0.00     0.4     1.7    2.47    3.03    3.31    3.44    3.50    3.49    3.53    0.00    0.00    0.02    0.02    0.02    0.02    0.02    0.02    0.02    0.02    0.00    0.36    1.68    2.48    3.04    3.33    3.45    3.52    3.51    3.55
   16 344    47     0     0    97.6    97.1     0.5     0.0    3.62   11.71    0.01    1.60    0.00    2.02    1.60    5.37    0.00    0.01     0.4     1.7    2.47    3.03    3.31    3.44    3.50    3.49    3.53    0.00    0.00    0.02    0.02    0.02    0.02    0.02    0.02    0.02    0.02    0.01    0.36    1.69    2.48    3.04    3.33    3.45    3.51    3.51    3.55
   16 345    48     0     0    97.6    97.1     0.4     0.0    3.62   11.74    0.01    1.60    0.00    2.02    1.63    5.37    0.00    0.01     0.3     1.7    2.47    3.03    3.31    3.44    3.50    3.49    3.53    0.00    0.00    0.02    0.02    0.02    0.01    0.01    0.02    0.02    0.01    0.01    0.34    1.68    2.48    3.04    3.32    3.45    3.51    3.51    3.55
   16 346    49     0     0    97.5    97.1     0.4     0.0    3.62   11.77    0.01    1.60    0.00    2.02    1.65    5.37    0.00    0.01     0.3     1.7    2.47    3.03    3.31    3.44    3.50    3.50    3.54    0.00    0.00    0.02    0.01    0.02    0.01    0.01    0.02    0.01    0.01    0.01    0.33    1.68    2.48    3.04    3.32    3.45    3.51    3.51    3.55
   16 347    50     0     0    97.5    97.2     0.4     0.0    3.63   11.80    0.01    1.60    0.00    2.03    1.68    5.37    0.00    0.00     0.3     1.7    2.47    3.03    3.31    3.44    3.50    3.50    3.54    0.00    0.00    0.02    0.01    0.01    0.01    0.01    0.01    0.01    0.01    0.00    0.32    1.68    2.48    3.04    3.32    3.45    3.51    3.51    3.55
   16 348    51     0     0    97.5    97.2     0.3     0.0    3.64   11.83    0.01    1.60    0.00    2.04    1.71    5.37    0.00    0.00     0.3     1.7    2.47    3.03    3.31    3.44    3.50    3.50    3.54    0.00    0.00    0.01    0.01    0.01    0.01    0.01    0.01    0.01    0.01    0.00    0.30    1.67    2.48    3.04    3.32    3.45    3.51    3.51    3.55
   16 349    52     0     0    97.5    97.2     0.3     0.0    3.65   11.86    0.01    1.60    0.00    2.05    1.73    5.37    0.00    0.00     0.3     1.7    2.46    3.03    3.31    3.44    3.50    3.50    3.54    0.00    0.00    0.01    0.01    0.01    0.01    0.01    0.01    0.01    0.01    0.00    0.29    1.67    2.48    3.04    3.32    3.45    3.51    3.51    3.55
   16 350    53     0     0    97.5    97.2     0.3     0.0    3.67   11.89    0.01    1.60    0.00    2.07    1.76    5.37    0.00    0.00     0.3     1.7    2.46    3.03    3.31    3.44    3.50    3.50    3.54    0.00    0.00    0.01    0.01    0.01    0.01    0.01    0.01    0.01    0.01    0.00    0.28    1.66    2.47    3.04    3.32    3.45    3.51    3.51    3.55
   16 351    54     0     0    97.5    97.2     0.3     0.0    3.68   11.92    0.01    1.60    0.00    2.08    1.78    5.37    0.00    0.00     0.3     1.6    2.46    3.03    3.31    3.44    3.50    3.50    3.54    0.00    0.00    0.01    0.01    0.01    0.01    0.01    0.01    0.01    0.01    0.00    0.27    1.66    2.47    3.04    3.32    3.45    3.51    3.51    3.55
   16 352    55     0     0    97.5    97.2     0.3     0.0    3.70   11.94    0.01    1.60    0.00    2.10    1.80    5.37    0.00    0.00     0.3     1.6    2.46    3.03    3.31    3.44    3.50    3.50    3.54    0.00    0.00    0.01    0.01    0.01    0.01    0.01    0.01    0.01    0.01    0.00    0.25    1.65    2.47    3.04    3.32    3.45    3.51    3.51    3.55
   16 353    56     0     0    97.5    97.2     0.3     0.0    3.71   11.97    0.01    1.60    0.00    2.11    1.83    5.37    0.00    0.00     0.2     1.6    2.45    3.03    3.31    3.44    3.50    3.50    3.54    0.00    0.00    0.01    0.01    0.01    0.01    0.01    0.01    0.01    0.01    0.00    0.24    1.65    2.46    3.04    3.32    3.45    3.51    3.51    3.55
   16 354    57     0     0    97.4    97.2     0.3     0.0    3.71   11.99    0.01    1.60    0.00    2.12    1.85    5.37    0.00    0.00     0.2     1.6    2.45    3.03    3.31    3.44    3.51    3.50    3.54    0.00    0.00    0.01    0.01    0.01    0.01    0.01    0.01    0.01    0.01    0.00    0.23    1.64    2.46    3.04    3.32    3.45    3.51    3.51    3.55
   16 355    58     0     0    97.4    97.2     0.2     0.0    3.72   12.01    0.01    1.60    0.00    2.12    1.87    5.37    0.00    0.00     0.2     1.6    2.45    3.03    3.31    3.44    3.51    3.50    3.54    0.00    0.00    0.01    0.01    0.01    0.01    0.01    0.01    0.01    0.01    0.00    0.22    1.64    2.46    3.04    3.32    3.45    3.51    3.51    3.55
   16 356    59     0     0    97.4    97.2     0.2     0.0    3.72   12.03    0.01    1.60    0.00    2.12    1.89    5.37    0.00    0.00     0.2     1.6    2.45    3.03    3.32    3.44    3.51    3.50    3.54    0.00    0.00    0.01    0.01    0.01    0.01    0.01    0.01    0.01    0.01    0.00    0.22    1.64    2.45    3.04    3.32    3.45    3.51    3.51    3.55
   16 357    60     0     0    97.4    97.2     0.2     0.0    3.72   12.05    0.01    1.60    0.00    2.12    1.91    5.37    0.00    0.00     0.2     1.6    2.44    3.03    3.32    3.44    3.51    3.50    3.54    0.00    0.00    0.01    0.01    0.01    0.01    0.01    0.01    0.01    0.01    0.00    0.21    1.63    2.45    3.04    3.32    3.45    3.51    3.51    3.55
   16 358    61     0     0    97.4    97.2     0.2     0.0    3.72   12.07    0.01    1.60    0.00    2.12    1.93    5.37    0.00    0.00     0.2     1.6    2.44    3.03    3.32    3.44    3.51    3.50    3.54    0.00    0.00    0.01    0.01    0.01    0.01    0.01    0.01    0.01    0.00    0.00    0.20    1.63    2.45    3.04    3.32    3.45    3.51    3.51    3.55
   16 359    62     0     0    97.3    97.2     0.2     0.0    3.72   12.08    0.01    1.60    0.00    2.12    1.94    5.37    0.00    0.00     0.2     1.6    2.44    3.03    3.32    3.44    3.51    3.50    3.54    0.00    0.00    0.01    0.01    0.01    0.01    0.01    0.01    0.01    0.00    0.00    0.19    1.62    2.44    3.04    3.32    3.45    3.51    3.51    3.55
   16 360    63     0     0    97.3    97.2     0.2     0.0    3.72   12.10    0.01    1.60    0.00    2.12    1.96    5.37    0.00    0.00     0.2     1.6    2.43    3.03    3.32    3.44    3.51    3.50    3.54    0.00    0.00    0.01    0.01    0.01    0.01    0.01    0.01    0.00    0.00    0.00    0.18    1.62    2.44    3.04    3.32    3.45    3.51    3.51    3.55
   16 361    64     0     0    97.3    97.2     0.2     0.0    3.73   12.11    0.01    1.60    0.00    2.13    1.98    5.37    0.00    0.00     0.2     1.6    2.43    3.03    3.32    3.44    3.51    3.50    3.54    0.00    0.00    0.01    0.01    0.01    0.01    0.01    0.01    0.00    0.00    0.00    0.18    1.61    2.44    3.04    3.32    3.45    3.51    3.51    3.55
   16 362    65     0     0    97.3    97.2     0.2     0.0    3.75   12.12    0.01    1.60    0.00    2.15    2.00    5.37    0.00    0.00     0.2     1.6    2.43    3.03    3.32    3.44    3.51    3.50    3.54    0.00    0.00    0.01    0.01    0.01    0.00    0.00    0.00    0.00    0.00    0.00    0.17    1.61    2.43    3.04    3.32    3.45    3.51    3.51    3.55
   16 363    66     0     0    97.3    97.2     0.2     0.0    3.78   12.14    0.01    1.60    0.00    2.18    2.01    5.37    0.00    0.00     0.2     1.6    2.42    3.03    3.32    3.45    3.51    3.50    3.54    0.00    0.00    0.01    0.01    0.01    0.00    0.00    0.00    0.00    0.00    0.00    0.17    1.60    2.43    3.04    3.32    3.45    3.51    3.51    3.55
   16 364    67     0     0    97.4    97.2     0.2     0.0    3.82   12.16    0.01    1.60    0.00    2.22    2.03    5.37    0.00    0.00     0.2     1.6    2.42    3.03    3.32    3.45    3.51    3.51    3.55    0.00    0.00    0.01    0.00    0.00    0.00    0.00    0.00    0.00    0.00    0.00    0.16    1.60    2.42    3.04    3.32    3.45    3.51    3.51    3.55
   16 365    68     0     0    97.4    97.2     0.2     0.0    3.84   12.18    0.01    1.60    0.00    2.24    2.05    5.37    0.00    0.00     0.2     1.6    2.41    3.03    3.32    3.45    3.51    3.51    3.55    0.00    0.00    0.01    0.00    0.00    0.00    0.00    0.00    0.00    0.00    0.00    0.16    1.59    2.42    3.04    3.32    3.45    3.51    3.51    3.55
   16 366    69     0     0    97.3    97.2     0.2     0.0    3.85   12.20    0.01    1.60    0.00    2.25    2.07    5.37    0.00    0.00     0.2     1.6    2.41    3.03    3.32    3.45    3.51    3.51    3.55    0.00    0.00    0.00    0.00    0.00    0.00    0.00    0.00    0.00    0.00    0.00    0.15    1.59    2.41    3.04    3.32    3.45    3.51    3.51    3.55
   17 001    70     0     0    97.3    97.2     0.2     0.0    3.85   12.21    0.01    1.60    0.00    2.25    2.09    5.37    0.00    0.00     0.1     1.6    2.40    3.03    3.32    3.45    3.51    3.51    3.55    0.00    0.00    0.00    0.00    0.00    0.00    0.00    0.00    0.00    0.00    0.00    0.15    1.58    2.40    3.04    3.32    3.45    3.51    3.51    3.55
   17 002    71     0     0    97.3    97.1     0.2     0.0    3.85   12.22    0.01    1.60    0.00    2.25    2.11    5.37    0.00    0.00     0.1     1.6    2.39    3.03    3.32    3.45    3.51    3.51    3.55    0.00    0.00    0.00    0.00    0.00    0.00    0.00    0.00    0.00    0.00    0.00    0.14    1.58    2.40    3.04    3.32    3.45    3.51    3.51    3.55
   17 003    72     0     0    97.3    97.1     0.2     0.0    3.85   12.24    0.01    1.60    0.00    2.25    2.13    5.37    0.00    0.00     0.1     1.6    2.39    3.03    3.32    3.45    3.51    3.51    3.55    0.00    0.00    0.00    0.00    0.00    0.00    0.00    0.00    0.00    0.00    0.00    0.14    1.57    2.39    3.04    3.32    3.45    3.51    3.51    3.55
   17 004    73     0     0    97.3    97.1     0.1     0.0    3.85   12.25    0.01    1.60    0.00    2.25    2.15    5.37    0.00    0.00     0.1     1.6    2.38    3.03    3.32    3.45    3.51    3.51    3.55    0.00    0.00    0.00    0.00    0.00    0.00    0.00    0.00    0.00    0.00    0.00    0.13    1.57    2.39    3.04    3.32    3.45    3.51    3.51    3.55
   17 005    74     0     0    97.3    97.1     0.1     0.0    3.85   12.26    0.01    1.60    0.00    2.25    2.17    5.37    0.00    0.00     0.1     1.6    2.38    3.03    3.32    3.45    3.51    3.51    3.55    0.00    0.00    0.00    0.00    0.00    0.00    0.00    0.00    0.00    0.00    0.00    0.13    1.56    2.38    3.04    3.32    3.45    3.51    3.51    3.55
   17 006    75     0     0    97.2    97.1     0.1     0.0    3.85   12.27    0.01    1.60    0.00    2.25    2.18    5.37    0.00    0.00     0.1     1.6    2.37    3.03    3.32    3.45    3.51    3.51    3.55    0.00    0.00    0.00    0.00    0.00    0.00    0.00    0.00    0.00    0.00    0.00    0.13    1.55    2.37    3.04    3.32    3.45    3.51    3.51    3.55
   17 007    76     0     0    97.2    97.1     0.1     0.0    3.85   12.27    0.01    1.60    0.00    2.25    2.20    5.37    0.00    0.00     0.1     1.5    2.37    3.03    3.32    3.45    3.51    3.51    3.55    0.00    0.00    0.00    0.00    0.00    0.00    0.00    0.00    0.00    0.00    0.00    0.12    1.55    2.37    3.04    3.32    3.45    3.51    3.51    3.55
   17 008    77     0     0    97.2    97.1     0.1     0.0    3.85   12.28    0.01    1.60    0.00    2.25    2.22    5.37    0.00    0.00     0.1     1.5    2.36    3.03    3.32    3.45    3.51    3.51    3.55    0.00    0.00    0.00    0.00    0.00    0.00    0.00    0.00    0.00    0.00    0.00    0.12    1.54    2.36    3.04    3.32    3.45    3.51    3.51    3.55
   17 009    78     0     0    97.2    97.1     0.1     0.0    3.85   12.29    0.01    1.60    0.00    2.25    2.23    5.37    0.00    0.00     0.1     1.5    2.35    3.03    3.32    3.45    3.51    3.51    3.55    0.00    0.00    0.00    0.00    0.00    0.00    0.00    0.00    0.00    0.00    0.00    0.11    1.54    2.36    3.04    3.32    3.45    3.51    3.51    3.55
   17 010    79     0     0    97.2    97.1     0.1     0.0    3.85   12.29    0.01    1.60    0.00    2.25    2.25    5.37    0.00    0.00     0.1     1.5    2.35    3.03    3.32    3.45    3.51    3.51    3.55    0.00    0.00    0.00    0.00    0.00    0.00    0.00    0.00    0.00    0.00    0.00    0.11    1.53    2.35    3.04    3.32    3.45    3.51    3.51    3.55
   17 011    80     0     0    97.2    97.1     0.1     0.0    3.85   12.30    0.01    1.60    0.00    2.25    2.26    5.37    0.00    0.00     0.1     1.5    2.34    3.03    3.32    3.45    3.51    3.51    3.55    0.00    0.00    0.00    0.00    0.00    0.00    0.00    0.00    0.00    0.00    0.00    0.11    1.53    2.35    3.04    3.32    3.45    3.51    3.51    3.55
   17 012    81     0     0    97.1    97.1     0.1     0.0    3.85   12.30    0.01    1.60    0.00    2.25    2.28    5.37    0.00    0.00     0.1     1.5    2.37    3.03    3.32    3.45    3.51    3.51    3.55    0.00    0.00    0.00    0.00    0.00    0.00    0.00    0.00    0.00    0.00    0.00    0.10    1.48    2.37    3.04    3.32    3.45    3.51    3.51    3.55
   17 013    82     0     0    96.9    96.8     0.1     0.0    3.85   12.31    0.01    1.60    0.00    2.25    2.29    5.60    0.00    0.00     0.1     1.2    2.25    2.98    3.31    3.46    3.51    3.51    3.55    0.00    0.00    0.00    0.00    0.00    0.00    0.00    0.00    0.00    0.00    0.00    0.09    1.23    2.25    2.98    3.31    3.46    3.52    3.51    3.55
   17 014    83     0     0    96.6    96.6     0.1     0.0    3.85   12.31    0.01    1.60    0.00    2.25    2.31    5.86    0.00    0.00     0.1     1.1    2.19    2.94    3.29    3.45    3.51    3.50    3.55    0.00    0.00    0.00    0.00    0.00    0.00    0.00    0.00    0.00    0.00    0.00    0.09    1.12    2.20    2.95    3.29    3.45    3.51    3.50    3.55
   17 015    84     0     0    96.5    96.5     0.1     0.0    3.85   12.32    0.01    1.60    0.00    2.25    2.32    5.95    0.00    0.00     0.1     1.1    2.17    2.93    3.29    3.45    3.51    3.50    3.55    0.00    0.00    0.00    0.00    0.00    0.00    0.00    0.00    0.00    0.00    0.00    0.09    1.09    2.17    2.93    3.29    3.45    3.51    3.50    3.55
   17 016    85     0     0    96.5    96.4     0.1     0.0    3.85   12.33    0.01    1.60    0.00    2.25    2.34    5.99    0.00    0.00     0.1     1.1    2.15    2.92    3.28    3.45    3.51    3.50    3.55    0.00    0.00    0.00    0.00    0.00    0.00    0.00    0.00    0.00    0.00    0.00    0.09    1.07    2.16    2.93    3.28    3.45    3.51    3.50    3.55
   17 017    86     0     0    96.4    96.4     0.1     0.0    3.85   12.33    0.01    1.60    0.00    2.25    2.35    6.00    0.00    0.00     0.1     1.1    2.15    2.92    3.28    3.45    3.51    3.50    3.55    0.00    0.00    0.00    0.00    0.00    0.00    0.00    0.00    0.00    0.00    0.00    0.09    1.06    2.15    2.92    3.28    3.45    3.51    3.50    3.55
   17 018    87     0     0    96.4    96.4     0.1     0.0    3.85   12.33    0.01    1.60    0.00    2.25    2.37    6.00    0.00    0.00     0.1     1.1    2.14    2.92    3.28    3.44    3.51    3.50    3.55    0.00    0.00    0.00    0.00    0.00    0.00    0.00    0.00    0.00    0.00    0.00    0.09    1.06    2.14    2.92    3.28    3.45    3.51    3.50    3.55
   17 019    88     0     0    96.4    96.4     0.1     0.0    3.85   12.34    0.01    1.60    0.00    2.25    2.38    6.00    0.00    0.00     0.1     1.1    2.14    2.92    3.28    3.44    3.51    3.50    3.55    0.00    0.00    0.00    0.00    0.00    0.00    0.00    0.00    0.00    0.00    0.00    0.08    1.06    2.14    2.92    3.28    3.45    3.51    3.50    3.55
   17 020    89     0     0    96.4    96.4     0.0     0.0    3.85   12.34    0.01    1.60    0.00    2.25    2.39    6.00    0.00    0.00     0.1     1.1    2.13    2.92    3.28    3.44    3.51    3.50    3.55    0.00    0.00    0.00    0.00    0.00    0.00    0.00    0.00    0.00    0.00    0.00    0.09    1.07    2.13    2.92    3.28    3.45    3.51    3.50    3.55
   17 021    90     0     0    96.4    96.3     0.0     0.0    3.85   12.34    0.01    1.60    0.00    2.25    2.41    6.00    0.00    0.00     0.1     1.1    2.13    2.92    3.28    3.44    3.51    3.50    3.54    0.00    0.00    0.00    0.00    0.00    0.00    0.00    0.00    0.00    0.00    0.00    0.09    1.07    2.13    2.92    3.28    3.44    3.51    3.50    3.55
   17 022    91     0     0    96.4    96.3     0.0     0.0    3.85   12.35    0.01    1.60    0.00    2.25    2.42    6.00    0.00    0.00     0.1     1.1    2.13    2.92    3.28    3.44    3.51    3.50    3.54    0.00    0.00    0.00    0.00    0.00    0.00    0.00    0.00    0.00    0.00    0.00    0.09    1.07    2.13    2.92    3.28    3.44    3.51    3.50    3.55
   17 023    92     0     0    96.4    96.3     0.0     0.0    3.85   12.35    0.01    1.60    0.00    2.25    2.43    6.00    0.00    0.00     0.1     1.1    2.12    2.92    3.28    3.44    3.51    3.50    3.54    0.00    0.00    0.00    0.00    0.00    0.00    0.00    0.00    0.00    0.00    0.00    0.08    1.07    2.12    2.92    3.28    3.44    3.51    3.50    3.55
   17 024    93     0     0    96.3    96.3     0.0     0.0    3.85   12.35    0.01    1.60    0.00    2.25    2.45    6.00    0.00    0.00     0.1     1.1    2.12    2.92    3.28    3.44    3.51    3.50    3.54    0.00    0.00    0.00    0.00    0.00    0.00    0.00    0.00    0.00    0.00    0.00    0.08    1.07    2.12    2.92    3.28    3.44    3.51    3.50    3.55
   17 025    94     0     0    96.3    96.3     0.0     0.0    3.85   12.35    0.01    1.60    0.00    2.25    2.46    6.00    0.00    0.00     0.1     1.1    2.11    2.92    3.28    3.44    3.51    3.50    3.54    0.00    0.00    0.00    0.00    0.00    0.00    0.00    0.00    0.00    0.00    0.00    0.08    1.07    2.11    2.92    3.28    3.44    3.51    3.50    3.55
   17 026    95     0     0    96.3    96.3     0.0     0.0    3.85   12.35    0.01    1.60    0.00    2.25    2.47    6.00    0.00    0.00     0.1     1.1    2.11    2.92    3.28    3.44    3.51    3.50    3.54    0.00    0.00    0.00    0.00    0.00    0.00    0.00    0.00    0.00    0.00    0.00    0.08    1.06    2.11    2.92    3.28    3.44    3.51    3.50    3.54
   17 027    96     0     0    96.3    96.3     0.0     0.0    3.85   12.35    0.01    1.60    0.00    2.25    2.49    6.00    0.00    0.00     0.1     1.1    2.10    2.92    3.28    3.44    3.51    3.50    3.54    0.00    0.00    0.00    0.00    0.00    0.00    0.00    0.00    0.00    0.00    0.00    0.08    1.07    2.11    2.92    3.28    3.44    3.51    3.50    3.54
   17 028    97     0     0    96.3    96.3     0.0     0.0    3.85   12.36    0.01    1.60    0.00    2.25    2.50    6.00    0.00    0.00     0.1     1.1    2.10    2.92    3.28    3.44    3.50    3.50    3.54    0.00    0.00    0.00    0.00    0.00    0.00    0.00    0.00    0.00    0.00    0.00    0.09    1.08    2.10    2.92    3.28    3.44    3.51    3.50    3.54
   17 029    98     0     0    96.3    96.3     0.0     0.0    3.85   12.36    0.01    1.60    0.00    2.25    2.51    6.00    0.00    0.00     0.1     1.1    2.10    2.92    3.28    3.44    3.50    3.50    3.54    0.00    0.00    0.00    0.00    0.00    0.00    0.00    0.00    0.00    0.00    0.00    0.09    1.08    2.10    2.92    3.28    3.44    3.50    3.50    3.54
   17 030    99     0     0    96.3    96.2     0.0     0.0    3.85   12.36    0.01    1.60    0.00    2.25    2.52    6.00    0.00    0.00     0.1     1.1    2.10    2.92    3.28    3.44    3.50    3.50    3.54    0.00    0.00    0.00    0.00    0.00    0.00    0.00    0.00    0.00    0.00    0.00    0.09    1.10    2.10    2.92    3.28    3.44    3.50    3.50    3.54
   17 031   100     0     0    96.3    96.2     0.0     0.0    3.85   12.36    0.01    1.60    0.00    2.25    2.54    6.00    0.00    0.00     0.1     1.1    2.10    2.94    3.28    3.44    3.50    3.50    3.54    0.00    0.00    0.00    0.00    0.00    0.00    0.00    0.00    0.00    0.00    0.00    0.09    1.07    2.10    2.94    3.28    3.44    3.50    3.50    3.54
   17 032   101     0     0    96.1    96.1     0.0     0.0    3.85   12.36    0.01    1.60    0.00    2.25    2.55    6.16    0.00    0.01     0.1     1.0    2.02    2.88    3.26    3.44    3.51    3.50    3.54    0.00    0.00    0.00    0.00    0.00    0.00    0.00    0.00    0.00    0.00    0.01    0.10    0.96    2.02    2.88    3.26    3.44    3.51    3.50    3.55
   17 033   102     0     0    95.9    95.9     0.0     0.0    3.85   12.36    0.01    1.60    0.00    2.25    2.56    6.33    0.00    0.00     0.1     0.9    1.98    2.85    3.25    3.43    3.50    3.50    3.54    0.00    0.00    0.00    0.00    0.00    0.00    0.00    0.00    0.00    0.00    0.00    0.10    0.91    1.98    2.85    3.25    3.43    3.50    3.50    3.54
   17 034   103     0     0    95.9    95.9     0.0     0.0    3.85   12.37    0.01    1.60    0.00    2.25    2.58    6.33    0.00    0.01     0.1     0.9    1.97    2.84    3.25    3.43    3.50    3.50    3.54    0.00    0.00    0.00    0.00    0.00    0.00    0.00    0.00    0.00    0.00    0.01    0.10    0.91    1.97    2.84    3.25    3.43    3.51    3.50    3.54
   17 035   104    40     1   109.1    95.8    13.2    26.8    3.85   12.37    0.01    1.60    0.02    2.25    2.60    6.33    0.00    0.01     0.1     0.9    1.96    2.83    3.25    3.43    3.50    3.50    3.54   20.45    0.00    0.00    0.00    0.00    0.00    0.00    0.00    0.00    0.00   20.46    0.11    0.92    1.96    2.84    3.25    3.43    3.51    3.50    3.54
   17 036   105    40     1   116.3    96.5    19.8    17.9    3.85   13.00    0.01    1.60    0.07    2.25    4.19    6.33    0.00    0.99     0.1     1.0    1.97    2.84    3.24    3.43    3.50    3.50    3.54   30.72    0.00    0.00    0.00    0.00    0.00    0.00    0.00    0.00    0.00   31.71    0.12    0.96    1.97    2.84    3.24    3.43    3.50    3.50    3.54
   17 037   106    40     1   121.6    97.5    24.0    12.4    3.85   14.08    0.01    1.60    0.13    2.25    4.32    6.33    0.00    2.67     0.1     1.0    1.98    2.84    3.24    3.42    3.50    3.49    3.54   37.21    0.00    0.00    0.00    0.00    0.00    0.00    0.00    0.00    0.00   39.88    0.15    1.01    1.99    2.84    3.24    3.42    3.50    3.49    3.54
   17 038   107    40     1   125.2    98.8    26.4     8.6    3.85   15.41    0.01    1.60    0.15    2.25    4.51    6.33    0.00    4.67     0.1     1.0    1.98    2.84    3.24    3.42    3.50    3.49    3.54   40.89    0.00    0.00    0.00    0.00    0.00    0.00    0.00    0.00    0.00   45.56    0.15    1.01    1.98    2.84    3.24    3.42    3.50    3.49    3.54
   17 039   108    40     1   127.8   100.3    27.5     5.9    3.85   16.88    0.01    1.60    0.19    2.26    4.57    6.33    0.00    6.94     0.1     1.0    1.98    2.84    3.24    3.42    3.50    3.49    3.54   42.59    0.00    0.00    0.00    0.00    0.00    0.00    0.00    0.00    0.00   49.52    0.15    1.01    1.98    2.84    3.24    3.42    3.50    3.49    3.54
   17 040   109    40     1   129.4   101.8    27.7     4.1    3.85   18.39    0.01    1.60    0.21    2.26    4.70    6.33    0.00    9.21     0.1     1.0    1.98    2.83    3.24    3.42    3.50    3.49    3.54   42.86    0.00    0.00    0.00    0.00    0.00    0.00    0.00    0.00    0.00   52.07    0.15    1.01    1.98    2.84    3.24    3.42    3.50    3.49    3.54
   17 041   110    40     1   130.6   103.2    27.4     2.9    3.85   19.84    0.01    1.60    0.23    2.26    4.70    6.33    0.00   11.44     0.1     1.0    1.98    2.83    3.24    3.42    3.50    3.49    3.54   42.40    0.00    0.00    0.00    0.00    0.00    0.00    0.00    0.00    0.00   53.84    0.15    1.01    1.98    2.84    3.24    3.42    3.50    3.49    3.54
   17 042   111    40     1   131.3   104.5    26.8     2.2    3.85   21.14    0.01    1.60    0.25    2.26    4.70    6.33    0.00   13.46     0.1     1.0    1.98    2.83    3.24    3.42    3.50    3.49    3.54   41.50    0.00    0.00    0.00    0.00    0.00    0.00    0.00    0.00    0.00   54.96    0.15    1.01    1.98    2.84    3.24    3.42    3.50    3.49    3.54
   17 043   112    40     1   131.8   105.7    26.0     1.7    3.85   22.37    0.01    1.60    0.29    2.26    4.70    6.33    0.00   15.35     0.2     1.0    1.98    2.83    3.24    3.42    3.50    3.49    3.54   40.35    0.00    0.00    0.00    0.00    0.00    0.00    0.00    0.00    0.00   55.70    0.15    1.02    1.98    2.83    3.24    3.42    3.50    3.49    3.54
   17 044   113    40     1   132.1   106.9    25.3     1.3    3.85   23.51    0.01    1.60    0.30    2.26    4.70    6.33    0.00   17.11     0.2     1.0    1.98    2.83    3.24    3.42    3.50    3.49    3.54   39.13    0.00    0.00    0.00    0.00    0.00    0.00    0.00    0.00    0.00   56.24    0.15    1.02    1.98    2.83    3.24    3.42    3.50    3.49    3.54
   17 045   114    40     1   132.4   108.0    24.4     1.0    3.85   24.64    0.01    1.60    0.31    2.26    4.70    6.33    0.00   18.85     0.2     1.0    1.98    2.83    3.24    3.42    3.50    3.49    3.54   37.84    0.00    0.00    0.00    0.00    0.00    0.00    0.00    0.00    0.00   56.70    0.15    1.02    1.98    2.83    3.24    3.42    3.50    3.49    3.54
   17 046   115    40     1   132.5   109.1    23.5     0.7    3.85   25.77    0.01    1.60    0.31    2.26    4.81    6.33    0.00   20.53     0.2     1.0    1.98    2.83    3.24    3.42    3.50    3.49    3.54   36.37    0.00    0.00    0.00    0.00    0.00    0.00    0.00    0.00    0.00   56.90    0.15    1.02    1.98    2.83    3.24    3.42    3.50    3.49    3.54
   17 047   116    40     1   132.7   110.2    22.5     0.5    3.85   26.92    0.01    1.60    0.32    2.26    4.82    6.33    0.00   22.28     0.2     1.0    1.98    2.83    3.24    3.42    3.50    3.49    3.54   34.87    0.00    0.00    0.00    0.00    0.00    0.00    0.00    0.00    0.00   57.15    0.16    1.02    1.98    2.83    3.24    3.42    3.50    3.49    3.54
   17 048   117    40     1   132.8   111.4    21.4     0.4    3.85   28.14    0.01    1.60    0.32    2.26    4.84    6.33    0.00   22.74     0.8     1.0    1.98    2.83    3.23    3.42    3.50    3.49    3.54   33.23    0.00    0.00    0.00    0.00    0.00    0.00    0.00    0.00    0.00   55.97    0.84    1.03    1.98    2.83    3.23    3.42    3.50    3.49    3.54
   17 049   118    40     1   132.5   112.4    20.2     0.3    3.85   29.33    0.01    1.60    0.32    2.26    5.23    6.33    0.00   24.06     0.9     1.0    1.98    2.83    3.23    3.42    3.50    3.49    3.54   31.22    0.01    0.00    0.00    0.00    0.00    0.00    0.00    0.00    0.00   55.29    0.95    1.03    1.98    2.83    3.23    3.42    3.50    3.49    3.54
   17 050   119    40     1   132.5   113.4    19.0     0.2    3.85   30.46    0.01    1.60    0.33    2.26    5.37    6.33    0.00   25.75     0.9     1.1    1.99    2.83    3.23    3.42    3.49    3.49    3.53   29.47    0.01    0.00    0.00    0.00    0.00    0.00    0.00    0.00    0.00   55.22    0.96    1.06    1.99    2.83    3.23    3.42    3.49    3.49    3.53
   17 051   120    40     1   132.3   114.4    17.9     0.1    3.85   31.53    0.01    1.60    0.33    2.26    5.57    6.33    0.00   26.11     1.5     1.1    1.99    2.83    3.23    3.42    3.49    3.49    3.53   27.74    0.02    0.00    0.00    0.00    0.00    0.00    0.00    0.00    0.00   53.84    1.52    1.06    1.99    2.83    3.23    3.42    3.49    3.49    3.53
   17 052   121    40     1   132.2   115.4    16.8     0.1    3.86   32.59    0.01    1.60    0.34    2.26    5.66    6.33    0.00   23.65     3.3     1.3    2.01    2.83    3.23    3.42    3.49    3.49    3.53   26.06    0.02    0.00    0.00    0.00    0.00    0.00    0.00    0.00    0.00   49.71    3.37    1.30    2.01    2.83    3.23    3.42    3.49    3.49    3.53
   17 053   122    40     1   132.0   116.0    16.0     0.1    3.86   33.35    0.01    1.60    0.34    2.26    5.97    6.33    0.00   22.84     4.0     1.6    1.99    2.80    3.23    3.43    3.51    3.50    3.54   24.67    0.03    0.00    0.00    0.00    0.00    0.00    0.00    0.00    0.00   47.51    3.98    1.61    1.99    2.80    3.23    3.43    3.51    3.50    3.54
   17 054   123    40     1   131.8   116.9    14.9     0.0    3.88   34.37    0.01    1.60    0.34    2.28    6.17    6.36    0.00   23.52     4.2     1.8    1.99    2.78    3.22    3.42    3.51    3.50    3.54   22.97    0.03    0.00    0.00    0.00    0.00    0.00    0.00    0.00    0.00   46.48    4.25    1.76    1.99    2.78    3.22    3.43    3.51    3.50    3.54
   17 055   124    40     1   131.4   117.9    13.5     0.0    3.95   35.58    0.01    1.65    0.35    2.29    6.51    6.36    0.00   25.30     4.2     1.8    2.01    2.78    3.22    3.42    3.50    3.49    3.54   20.81    0.01    0.01    0.00    0.00    0.00    0.00    0.00    0.00    0.00   46.11    4.19    1.79    2.01    2.78    3.22    3.42    3.50    3.50    3.54
   17 056   125    40     1   130.8   118.7    12.1     0.0    4.04   36.74    0.01    1.73    0.35    2.30    7.17    6.36    0.00   26.82     4.1     1.8    2.02    2.78    3.21    3.42    3.50    3.49    3.53   18.51    0.00    0.01    0.01    0.01    0.01    0.01    0.01    0.00    0.01   45.33    4.06    1.80    2.02    2.79    3.22    3.42    3.50    3.50    3.54
   17 057   126    40     1   130.2   119.3    10.9     0.0    4.11   37.74    0.01    1.79    0.36    2.32    7.76    6.36    0.00   27.92     4.0     1.8    2.01    2.78    3.21    3.42    3.50    3.49    3.53   16.55    0.00    0.01    0.01    0.01    0.01    0.01    0.01    0.01    0.01   44.47    3.99    1.80    2.02    2.79    3.22    3.42    3.51    3.50    3.54
   17 058   127    40     1   129.9   119.9     9.9     0.0    4.16   38.60    0.01    1.82    0.36    2.34    8.12    6.36    0.00   28.99     3.9     1.8    2.01    2.78    3.21    3.42    3.50    3.49    3.54   15.00    0.00    0.01    0.01    0.01    0.01    0.01    0.01    0.01    0.01   43.99    3.94    1.80    2.02    2.79    3.22    3.42    3.51    3.50    3.54
   17 059   128    40     1   129.2   120.2     9.0     0.0    4.19   39.32    0.01    1.82    0.37    2.37    8.81    6.36    0.00   19.49     8.1     3.0    2.09    2.81    3.21    3.42    3.50    3.49    3.54   13.52    0.00    0.01    0.01    0.01    0.01    0.01    0.01    0.01    0.01   33.00    8.09    3.02    2.10    2.81    3.22    3.42    3.51    3.50    3.54
   17 060   129    40     1   128.3   119.9     8.3     0.0    4.19   39.62    0.01    1.82    0.37    2.37    9.75    6.36    0.00   15.13     8.9     4.5    2.34    2.82    3.25    3.45    3.50    3.49    3.54   12.56    0.00    0.01    0.01    0.01    0.01    0.01    0.01    0.01    0.01   27.69    8.89    4.54    2.35    2.83    3.26    3.46    3.50    3.50    3.54
   17 061   130    40     1   127.0   119.1     7.9     0.0    4.19   39.92    0.01    1.82    0.38    2.37   10.08    7.25    0.00   14.15     8.4     5.0    2.63    2.75    3.16    3.40    3.49    3.49    3.54   11.95    0.00    0.01    0.01    0.01    0.01    0.01    0.01    0.01    0.01   26.10    8.40    5.03    2.64    2.76    3.16    3.40    3.49    3.50    3.54
   17 062   131    40     1   125.9   118.7     7.2     0.0    4.20   40.35    0.01    1.82    0.38    2.38   10.93    7.56    0.00   14.36     8.0     5.0    2.76    2.75    3.12    3.37    3.48    3.49    3.53   10.77    0.00    0.01    0.01    0.01    0.01    0.01    0.01    0.01    0.01   25.13    7.99    4.99    2.77    2.76    3.13    3.38    3.48    3.50    3.54
   17 063   132    40     1   124.8   118.5     6.3     0.0    4.20   40.79    0.01    1.82    0.39    2.38   12.01    7.60    0.00   14.59     7.7     4.9    2.80    2.74    3.11    3.36    3.48    3.49    3.53    9.45    0.00    0.01    0.01    0.01    0.01    0.01    0.01    0.01    0.01   24.04    7.73    4.87    2.80    2.75    3.11    3.37    3.48    3.50    3.54
   17 064   133    40     1   124.1   118.5     5.6     0.0    4.21   41.21    0.01    1.82    0.40    2.39   12.66    7.60    0.00   14.49     7.8     4.9    2.82    2.76    3.10    3.36    3.47    3.49    3.53    8.43    0.00    0.01    0.01    0.01    0.01    0.01    0.01    0.00    0.01   22.92    7.83    4.86    2.82    2.76    3.11    3.36    3.48    3.49    3.54
   17 065   134    40     1   122.6   117.8     4.8     0.0    4.23   41.58    0.01    1.82    0.40    2.41   14.18    7.60    0.00   13.74     7.8     4.8    2.84    2.75    3.11    3.35    3.47    3.48    3.53    7.08    0.00    0.01    0.01    0.01    0.01    0.01    0.01    0.00    0.01   20.83    7.75    4.85    2.84    2.75    3.12    3.36    3.48    3.49    3.53
   17 066   135    40     1   121.4   117.3     4.1     0.0    4.26   41.90    0.01    1.83    0.41    2.42   15.37    7.60    0.00   13.43     7.5     4.8    2.86    2.74    3.10    3.37    3.48    3.49    3.53    6.04    0.00    0.01    0.01    0.01    0.01    0.01    0.01    0.00    0.01   19.47    7.53    4.77    2.87    2.75    3.10    3.37    3.49    3.50    3.53
   17 067   136    40     1   120.3   116.8     3.5     0.0    4.27   42.18    0.01    1.83    0.41    2.44   16.51    7.60    0.00   10.66     8.1     5.3    2.97    2.75    3.11    3.36    3.48    3.49    3.52    5.12    0.00    0.01    0.01    0.01    0.00    0.00    0.01    0.00    0.01   15.78    8.08    5.35    2.97    2.76    3.12    3.37    3.49    3.50    3.53
   17 068   137    40     1   119.8   116.5     3.3     0.0    4.29   42.33    0.01    1.84    0.41    2.46   17.06    7.60    0.00    6.44     8.0     7.2    3.71    2.91    3.15    3.40    3.52    3.49    3.52    4.74    0.00    0.01    0.01    0.01    0.00    0.00    0.01    0.00    0.01   11.17    7.99    7.21    3.72    2.92    3.16    3.41    3.52    3.49    3.53
   17 069   138    40     1   117.6   114.6     3.0     0.0    4.31   42.46    0.02    1.84    0.42    2.47   17.61    9.18    0.00    5.79     7.0     6.6    3.96    3.06    3.08    3.31    3.46    3.47    3.52    4.35    0.00    0.01    0.00    0.00    0.00    0.00    0.00    0.00    0.01   10.14    7.01    6.59    3.97    3.06    3.08    3.32    3.46    3.47    3.52
   17 070   139    40     1   116.0   113.4     2.6     0.0    4.32   42.62    0.02    1.84    0.42    2.48   18.49    9.95    0.00    5.69     6.4     6.1    4.04    3.12    3.07    3.28    3.43    3.46    3.51    3.72    0.00    0.01    0.00    0.00    0.00    0.00    0.00    0.00    0.00    9.41    6.40    6.08    4.04    3.13    3.08    3.28    3.43    3.46    3.52
   17 071   140    40     1   115.0   112.8     2.2     0.0    4.32   42.78    0.02    1.84    0.43    2.48   19.24   10.13    0.00    5.97     6.1     5.7    4.02    3.14    3.06    3.26    3.42    3.46    3.51    3.16    0.00    0.01    0.00    0.00    0.00    0.00    0.00    0.00    0.00    9.13    6.05    5.73    4.03    3.15    3.07    3.27    3.42    3.46    3.51
   17 072   141    40     1   114.2   112.4     1.9     0.0    4.32   42.93    0.02    1.84    0.44    2.49   20.02   10.13    0.00    6.37     5.8     5.5    3.96    3.12    3.05    3.26    3.41    3.46    3.51    2.66    0.00    0.01    0.00    0.00    0.00    0.00    0.00    0.00    0.00    9.03    5.81    5.46    3.96    3.12    3.05    3.26    3.41    3.46    3.51
   17 073   142    40     1   113.1   111.6     1.5     0.0    4.33   43.05    0.02    1.84    0.45    2.49   21.12   10.13    0.00    6.52     5.5     5.2    3.86    3.07    3.03    3.25    3.41    3.45    3.50    2.17    0.00    0.01    0.00    0.00    0.00    0.00    0.00    0.00    0.00    8.68    5.53    5.21    3.87    3.08    3.03    3.25    3.41    3.45    3.51
   17 074   143    40     1   110.1   109.1     1.0     0.0    4.33   43.12    0.02    1.84    0.45    2.49   24.16   10.13    0.00    5.20     4.9     4.8    3.68    2.97    2.96    3.24    3.40    3.44    3.50    1.37    0.00    0.00    0.00    0.00    0.00    0.00    0.00    0.00    0.00    6.56    4.93    4.78    3.68    2.97    2.96    3.24    3.41    3.45    3.50
   17 075   144    40     1   108.3   107.5     0.8     0.0    4.33   43.19    0.02    1.84    0.46    2.50   25.97   10.13    0.00    4.51     4.5     4.5    3.55    2.89    2.90    3.23    3.40    3.44    3.50    1.04    0.00    0.00    0.00    0.00    0.00    0.00    0.00    0.00    0.00    5.55    4.48    4.50    3.55    2.89    2.90    3.23    3.41    3.45    3.50
   17 076   145    40     1   106.3   105.6     0.7     0.0    4.35   43.24    0.02    1.84    0.46    2.51   27.97   10.13    0.00    4.02     3.9     4.1    3.36    2.77    2.81    3.20    3.40    3.44    3.50    0.81    0.00    0.00    0.00    0.00    0.00    0.00    0.00    0.00    0.00    4.83    3.93    4.11    3.36    2.77    2.81    3.21    3.41    3.45    3.50
   17 077   146    40     1   104.3   103.7     0.6     0.0    4.39   43.29    0.02    1.86    0.47    2.53   30.03   10.13    0.00    3.38     3.5     3.7    3.15    2.63    2.70    3.16    3.40    3.44    3.50    0.61    0.00    0.00    0.00    0.00    0.00    0.00    0.00    0.00    0.00    3.99    3.48    3.70    3.15    2.64    2.70    3.17    3.41    3.45    3.50
   17 078   147    40     1   101.3   100.9     0.3     0.0    4.45   43.32    0.02    1.91    0.47    2.54   33.04   10.13    0.00    1.70     2.9     3.3    2.92    2.49    2.57    3.11    3.40    3.45    3.50    0.23    0.00    0.01    0.01    0.01    0.01    0.01    0.01    0.01    0.01    1.93    2.95    3.29    2.93    2.49    2.58    3.11    3.41    3.45    3.51
   17 079   148    40     1    99.2    98.8     0.3     0.0    4.54   43.35    0.02    1.97    0.47    2.57   35.15   10.13    0.00    0.98     2.5     2.9    2.70    2.34    2.45    3.05    3.40    3.45    3.50    0.08    0.00    0.01    0.01    0.01    0.01    0.01    0.01    0.01    0.01    1.05    2.47    2.92    2.71    2.35    2.46    3.06    3.41    3.45    3.51
   17 080   149    40     1    97.5    97.1     0.4     0.0    4.65   43.38    0.02    2.05    0.48    2.61   36.87   10.13    0.00    0.70     2.1     2.6    2.48    2.20    2.32    2.97    3.40    3.45    3.50    0.01    0.00    0.01    0.01    0.01    0.01    0.01    0.01    0.01    0.01    0.71    2.05    2.57    2.49    2.21    2.33    2.98    3.42    3.46    3.51
   17 081   150    40     1    95.9    95.5     0.4     0.0    4.78   43.42    0.02    2.12    0.48    2.65   38.49   10.13    0.00    0.45     1.7     2.2    2.26    2.05    2.19    2.87    3.40    3.45    3.50    0.00    0.00    0.02    0.02    0.02    0.02    0.02    0.02    0.01    0.01    0.45    1.69    2.24    2.27    2.07    2.20    2.89    3.42    3.46    3.52
   17 082   151    40     1    94.4    93.9     0.5     0.0    4.88   43.47    0.02    2.18    0.48    2.70   40.05   10.13    0.00    0.22     1.4     1.9    2.04    1.90    2.05    2.75    3.40    3.45    3.50    0.00    0.00    0.02    0.02    0.02    0.02    0.02    0.02    0.02    0.02    0.22    1.40    1.94    2.06    1.92    2.06    2.77    3.42    3.46    3.52
   17 083   152    40     1    93.1    92.5     0.5     0.0    4.99   43.52    0.02    2.24    0.48    2.75   41.43   10.13    0.00    0.13     1.1     1.6    1.83    1.75    1.91    2.62    3.40    3.45    3.51    0.00    0.00    0.02    0.02    0.02    0.02    0.02    0.02    0.02    0.02    0.13    1.14    1.67    1.85    1.77    1.93    2.64    3.42    3.47    3.52
   17 084   153    40     1    91.7    91.1     0.5     0.0    5.07   43.57    0.02    2.28    0.48    2.80   42.85   10.13    0.00    0.08     0.9     1.4    1.63    1.60    1.76    2.45    3.38    3.45    3.51    0.00    0.00    0.02    0.02    0.02    0.02    0.02    0.02    0.02    0.02    0.08    0.94    1.42    1.65    1.62    1.78    2.47    3.40    3.47    3.53
   17 085   154    40     1    90.4    89.8     0.5     0.0    5.14   43.62    0.02    2.30    0.48    2.84   44.18   10.13    0.00    0.07     0.8     1.2    1.44    1.45    1.61    2.27    3.34    3.45    3.51    0.00    0.00    0.02    0.02    0.02    0.02    0.02    0.02    0.02    0.02    0.07    0.76    1.21    1.46    1.47    1.63    2.29    3.36    3.47    3.53
   17 086   155    40     1    89.1    88.6     0.5     0.0    5.19   43.68    0.02    2.32    0.48    2.87   45.51   10.13    0.00    0.07     0.6     1.0    1.26    1.31    1.46    2.07    3.28    3.45    3.51    0.00    0.00    0.02    0.02    0.02    0.02    0.02    0.02    0.02    0.02    0.07    0.62    1.01    1.27    1.33    1.48    2.09    3.30    3.47    3.53
   17 087   156    40     1    87.9    87.4     0.5     0.0    5.24   43.73    0.02    2.34    0.48    2.91   46.75   10.13    0.00    0.07     0.5     0.8    1.09    1.17    1.32    1.88    3.20    3.46    3.51    0.00    0.00    0.02    0.02    0.02    0.02    0.02    0.02    0.02    0.02    0.07    0.51    0.85    1.11    1.19    1.34    1.90    3.22    3.47    3.53
   17 088   157    40     1    86.7    86.2     0.5     0.0    5.30   43.77    0.02    2.35    0.48    2.95   47.94   10.13    0.00    0.07     0.4     0.7    0.95    1.04    1.19    1.69    3.09    3.46    3.51    0.00    0.00    0.02    0.02    0.02    0.02    0.02    0.02    0.02    0.02    0.07    0.42    0.72    0.97    1.06    1.20    1.71    3.11    3.48    3.53
   17 089   158    40     1    85.7    85.1     0.5     0.0    5.39   43.83    0.02    2.37    0.48    3.01   49.09   10.13    0.00    0.07     0.3     0.6    0.82    0.92    1.06    1.51    2.94    3.46    3.52    0.00    0.00    0.02    0.02    0.02    0.02    0.02    0.02    0.02    0.02    0.07    0.34    0.61    0.84    0.94    1.07    1.53    2.96    3.48    3.53
   17 090   159    40     1    84.6    84.0     0.6     0.0    5.49   43.88    0.02    2.39    0.48    3.10   50.24   10.13    0.00    0.07     0.3     0.5    0.71    0.81    0.94    1.34    2.73    3.46    3.52    0.00    0.00    0.02    0.02    0.02    0.02    0.02    0.02    0.02    0.02    0.07    0.28    0.53    0.73    0.83    0.95    1.36    2.75    3.48    3.54
   17 091   160    40     1    83.6    83.0     0.6     0.0    5.64   43.95    0.02    2.42    0.48    3.22   51.34   10.13    0.00    0.07     0.2     0.4    0.61    0.71    0.83    1.19    2.48    3.46    3.52    0.00    0.00    0.03    0.02    0.02    0.02    0.02    0.02    0.02    0.02    0.07    0.23    0.46    0.63    0.73    0.85    1.21    2.50    3.49    3.54
   17 092   161    40     1    82.7    82.0     0.7     0.0    5.82   44.02    0.02    2.44    0.48    3.38   52.40   10.13    0.00    0.07     0.2     0.4    0.53    0.62    0.73    1.05    2.19    3.47    3.52    0.00    0.00    0.03    0.03    0.03    0.02    0.02    0.03    0.03    0.03    0.07    0.19    0.41    0.56    0.65    0.75    1.08    2.22    3.49    3.55
   17 093   162    40     1    81.9    81.1     0.8     0.0    6.03   44.11    0.02    2.46    0.48    3.57   53.38   10.13    0.00    0.08     0.2     0.3    0.47    0.54    0.64    0.93    1.91    3.46    3.53    0.00    0.00    0.03    0.03    0.03    0.03    0.03    0.03    0.03    0.03    0.08    0.16    0.38    0.50    0.58    0.67    0.96    1.94    3.49    3.56
   17 094   163    40     1    81.2    80.3     0.9     0.0    6.23   44.22    0.02    2.47    0.48    3.75   54.31   10.13    0.00    0.08     0.1     0.3    0.41    0.48    0.56    0.82    1.66    3.45    3.53    0.00    0.00    0.04    0.04    0.04    0.03    0.03    0.03    0.03    0.03    0.08    0.14    0.35    0.45    0.52    0.59    0.85    1.69    3.48    3.56
   17 095   164    40     1    80.5    79.6     0.9     0.0    6.42   44.32    0.02    2.49    0.48    3.93   55.19   10.13    0.00    0.08     0.1     0.3    0.36    0.42    0.49    0.72    1.42    3.42    3.53    0.00    0.00    0.04    0.04    0.04    0.03    0.03    0.03    0.04    0.03    0.08    0.12    0.33    0.40    0.46    0.53    0.75    1.45    3.46    3.57
   17 096   165    40     1    79.8    78.9     0.9     0.0    6.57   44.43    0.02    2.50    0.48    4.08   56.00   10.13    0.00    0.07     0.1     0.3    0.32    0.37    0.43    0.63    1.22    3.39    3.54    0.00    0.00    0.04    0.04    0.04    0.03    0.03    0.03    0.04    0.04    0.07    0.11    0.30    0.36    0.41    0.47    0.66    1.25    3.43    3.57
   17 097   166    40     1    79.2    78.2     0.9     0.0    6.68   44.53    0.02    2.50    0.48    4.17   56.76   10.13    0.00    0.07     0.1     0.2    0.29    0.32    0.38    0.55    1.04    3.34    3.54    0.00    0.00    0.04    0.03    0.04    0.03    0.03    0.03    0.04    0.04    0.07    0.10    0.28    0.32    0.36    0.41    0.58    1.07    3.38    3.58
   17 098   167    40     1    78.5    77.7     0.9     0.0    6.76   44.62    0.02    2.51    0.48    4.26   57.45   10.13    0.00    0.07     0.1     0.2    0.25    0.29    0.33    0.48    0.89    3.30    3.54    0.00    0.00    0.04    0.03    0.03    0.03    0.03    0.03    0.04    0.03    0.07    0.09    0.26    0.29    0.32    0.36    0.51    0.92    3.33    3.58
   17 099   168    40     1    77.9    77.1     0.8     0.0    6.85   44.71    0.02    2.51    0.48    4.34   58.13   10.13    0.00    0.07     0.1     0.2    0.23    0.25    0.29    0.42    0.76    3.23    3.55    0.00    0.00    0.03    0.03    0.03    0.03    0.03    0.02    0.03    0.03    0.07    0.09    0.24    0.26    0.28    0.32    0.45    0.78    3.26    3.58
   17 100   169    40     1    77.4    76.6     0.8     0.0    6.96   44.80    0.02    2.52    0.48    4.44   58.79   10.13    0.00    0.07     0.1     0.2    0.20    0.22    0.26    0.37    0.65    3.15    3.55    0.00    0.00    0.03    0.03    0.03    0.03    0.02    0.02    0.03    0.03    0.07    0.08    0.23    0.23    0.25    0.28    0.40    0.67    3.18    3.59
   17 101   170    40     1    76.9    76.0     0.9     0.0    7.10   44.89    0.02    2.52    0.48    4.58   59.45   10.13    0.00    0.07     0.1     0.2    0.18    0.20    0.23    0.33    0.55    3.04    3.56    0.00    0.00    0.03    0.03    0.03    0.03    0.03    0.02    0.03    0.03    0.07    0.07    0.22    0.21    0.23    0.25    0.35    0.58    3.07    3.59
   17 102   171    40     1    76.3    75.5     0.9     0.0    7.25   44.99    0.02    2.52    0.48    4.73   60.13   10.13    0.00    0.07     0.1     0.2    0.17    0.18    0.20    0.29    0.47    2.91    3.56    0.00    0.00    0.04    0.03    0.03    0.03    0.03    0.02    0.03    0.04    0.07    0.07    0.21    0.20    0.21    0.23    0.32    0.50    2.94    3.60
   17 103   172    40     1    75.8    74.9     0.9     0.0    7.40   45.09    0.02    2.52    0.48    4.88   60.80   10.13    0.00    0.07     0.1     0.2    0.16    0.16    0.18    0.26    0.41    2.77    3.56    0.00    0.00    0.04    0.03    0.03    0.03    0.03    0.03    0.03    0.04    0.08    0.07    0.21    0.19    0.20    0.21    0.29    0.43    2.80    3.60
   17 104   173    40     1    75.3    74.4     0.9     0.0    7.55   45.19    0.02    2.52    0.48    5.03   61.45   10.13    0.00    0.07     0.1     0.2    0.15    0.15    0.17    0.24    0.35    2.62    3.57    0.01    0.00    0.04    0.03    0.03    0.03    0.03    0.03    0.03    0.04    0.08    0.07    0.21    0.18    0.19    0.20    0.26    0.38    2.66    3.61
   17 105   174    40     1    74.8    73.9     0.9     0.0    7.68   45.30    0.02    2.52    0.48    5.16   62.12   10.13    0.00    0.08     0.1     0.2    0.14    0.14    0.15    0.21    0.31    2.47    3.57    0.01    0.00    0.04    0.03    0.03    0.03    0.03    0.03    0.03    0.04    0.08    0.07    0.21    0.18    0.17    0.18    0.24    0.33    2.50    3.61
   17 106   175    40     1    74.2    73.3     0.9     0.0    7.79   45.39    0.02    2.52    0.48    5.27   62.77   10.13    0.00    0.08     0.1     0.2    0.14    0.13    0.14    0.19    0.27    2.31    3.58    0.01    0.00    0.04    0.03    0.03    0.03    0.03    0.03    0.03    0.04    0.09    0.06    0.21    0.17    0.16    0.17    0.22    0.29    2.34    3.61
   17 107   176    40     1    73.7    72.8     0.9     0.0    7.90   45.49    0.02    2.52    0.48    5.38   63.42   10.13    0.00    0.07     0.1     0.2    0.13    0.12    0.13    0.17    0.23    2.14    3.58    0.01    0.00    0.04    0.03    0.03    0.03    0.03    0.02    0.03    0.04    0.09    0.07    0.20    0.16    0.15    0.15    0.20    0.26    2.17    3.62
   17 108   177    40     1    73.1    72.3     0.8     0.0    7.98   45.58    0.02    2.52    0.48    5.46   64.07   10.13    0.00    0.02     0.1     0.2    0.12    0.11    0.11    0.16    0.20    1.98    3.58    0.00    0.00    0.03    0.03    0.03    0.03    0.03    0.02    0.03    0.04    0.02    0.07    0.20    0.15    0.14    0.14    0.18    0.22    2.01    3.62
   17 109   178    40     1    72.6    71.8     0.8     0.0    8.03   45.66    0.02    2.52    0.48    5.50   64.66   10.13    0.00    0.02     0.1     0.2    0.12    0.10    0.10    0.14    0.18    1.83    3.59    0.00    0.00    0.03    0.03    0.03    0.02    0.02    0.02    0.03    0.03    0.02    0.06    0.20    0.14    0.13    0.13    0.16    0.20    1.85    3.62
   17 110   179    40     1    72.0    71.3     0.7     0.0    8.03   45.73    0.02    2.52    0.48    5.51   65.22   10.13    0.00    0.01     0.1     0.2    0.11    0.10    0.10    0.13    0.16    1.69    3.59    0.00    0.00    0.03    0.02    0.02    0.02    0.02    0.02    0.02    0.03    0.01    0.05    0.19    0.13    0.12    0.11    0.15    0.17    1.71    3.62
   17 111   180    40     1    71.5    70.9     0.6     0.0    8.03   45.78    0.02    2.52    0.48    5.51   65.72   10.13    0.00    0.01     0.0     0.2    0.10    0.09    0.09    0.12    0.14    1.56    3.59    0.00    0.00    0.03    0.02    0.02    0.02    0.02    0.01    0.02    0.03    0.01    0.05    0.19    0.13    0.11    0.10    0.13    0.16    1.58    3.62
   17 112   181    40     1    71.1    70.5     0.6     0.0    8.03   45.83    0.02    2.52    0.48    5.51   66.18   10.13    0.00    0.00     0.0     0.2    0.10    0.08    0.08    0.10    0.13    1.44    3.59    0.00    0.00    0.02    0.02    0.02    0.01    0.01    0.01    0.02    0.03    0.00    0.04    0.18    0.12    0.10    0.09    0.12    0.14    1.46    3.62
   17 113   182    40     1    70.6    70.1     0.5     0.0    8.03   45.88    0.02    2.52    0.48    5.51   66.61   10.13    0.00    0.00     0.0     0.2    0.09    0.08    0.07    0.09    0.12    1.33    3.59    0.00    0.00    0.02    0.02    0.01    0.01    0.01    0.01    0.01    0.02    0.00    0.03    0.17    0.11    0.09    0.08    0.10    0.13    1.34    3.62
   17 114   183    40     1    70.2    69.8     0.5     0.0    8.03   45.92    0.02    2.52    0.48    5.51   67.02   10.13    0.00    0.00     0.0     0.1    0.09    0.07    0.07    0.08    0.11    1.23    3.59    0.00    0.00    0.02    0.01    0.01    0.01    0.01    0.01    0.01    0.02    0.00    0.03    0.17    0.10    0.08    0.08    0.09    0.11    1.24    3.61
   17 115   184    40     1    69.8    69.4     0.4     0.0    8.03   45.95    0.02    2.52    0.48    5.51   67.39   10.13    0.00    0.00     0.0     0.1    0.08    0.06    0.06    0.08    0.10    1.13    3.59    0.00    0.00    0.02    0.01    0.01    0.01    0.01    0.01    0.01    0.02    0.00    0.02    0.17    0.10    0.07    0.07    0.08    0.11    1.14    3.61
   17 116   185    40     1    69.5    69.1     0.4     0.0    8.04   45.99    0.02    2.53    0.48    5.51   67.79   10.13    0.00    0.00     0.0     0.1    0.09    0.06    0.06    0.07    0.09    1.04    3.59    0.00    0.00    0.01    0.01    0.01    0.01    0.01    0.00    0.01    0.02    0.00    0.01    0.07    0.10    0.07    0.06    0.08    0.09    1.05    3.61
   17 117   186    40     1    69.1    68.8     0.3     0.0    8.04   46.02    0.02    2.53    0.48    5.51   68.13   10.13    0.00    0.00     0.0     0.0    0.07    0.07    0.05    0.06    0.08    0.95    3.59    0.00    0.00    0.01    0.01    0.01    0.01    0.01    0.00    0.01    0.02    0.00    0.01    0.04    0.07    0.08    0.06    0.07    0.08    0.96    3.61
   17 118   187    40     1    68.8    68.5     0.3     0.0    8.04   46.05    0.02    2.53    0.48    5.51   68.46   10.13    0.00    0.00     0.0     0.0    0.05    0.05    0.05    0.06    0.07    0.87    3.60    0.00    0.00    0.01    0.01    0.00    0.00    0.00    0.00    0.01    0.02    0.00    0.00    0.03    0.06    0.06    0.06    0.06    0.07    0.87    3.61
   17 119   188    40     1    68.5    68.2     0.3     0.0    8.04   46.07    0.02    2.53    0.48    5.51   68.75   10.13    0.00    0.00     0.0     0.0    0.04    0.04    0.04    0.06    0.07    0.78    3.57    0.00    0.00    0.01    0.01    0.00    0.00    0.00    0.00    0.00    0.01    0.00    0.00    0.02    0.04    0.04    0.05    0.06    0.07    0.79    3.59
   17 120   189    40     1    67.2    66.9     0.2     0.0    8.04   46.09    0.02    2.53    0.48    5.51   69.06   11.15    0.00    0.00     0.0     0.0    0.03    0.03    0.03    0.04    0.05    0.64    3.28    0.00    0.00    0.00    0.00    0.00    0.00    0.00    0.00    0.00    0.01    0.00    0.00    0.01    0.03    0.03    0.03    0.04    0.05    0.65    3.29
   17 121   190    40     1    66.9    66.7     0.2     0.0    8.04   46.11    0.02    2.53    0.48    5.51   69.32   11.15    0.00    0.00     0.0     0.0    0.02    0.02    0.02    0.03    0.04    0.59    3.28    0.00    0.00    0.00    0.00    0.00    0.00    0.00    0.00    0.00    0.01    0.00    0.00    0.01    0.02    0.02    0.02    0.03    0.04    0.59    3.29
   17 122   191    40     1    64.4    64.2     0.2     0.0    8.04   46.13    0.02    2.53    0.48    5.52   69.55   13.44    0.00    0.00     0.0     0.0    0.01    0.01    0.01    0.02    0.03    0.45    2.81    0.00    0.00    0.00    0.00    0.00    0.00    0.00    0.00    0.00    0.01    0.00    0.00    0.01    0.01    0.02    0.02    0.02    0.03    0.45    2.82
   17 123   192    40     1    63.2    63.0     0.2     0.0    8.10   46.15    0.02    2.53    0.48    5.58   69.73   14.47    0.00    0.00     0.0     0.0    0.01    0.01    0.01    0.01    0.02    0.37    2.61    0.01    0.00    0.01    0.00    0.00    0.00    0.00    0.00    0.00    0.01    0.01    0.01    0.01    0.01    0.01    0.01    0.02    0.03    0.38    2.62
   17 124   193    40     1    62.8    62.5     0.3     0.0    8.22   46.17    0.02    2.53    0.48    5.69   69.89   14.87    0.00    0.00     0.0     0.0    0.00    0.01    0.01    0.01    0.02    0.33    2.53    0.01    0.01    0.01    0.01    0.01    0.01    0.01    0.01    0.01    0.01    0.01    0.01    0.01    0.01    0.01    0.01    0.02    0.02    0.33    2.54
   17 125   194    40     1    62.7    62.3     0.4     0.0    8.35   46.20    0.02    2.53    0.48    5.83   70.07   14.92    0.00    0.00     0.0     0.0    0.00    0.00    0.01    0.01    0.01    0.29    2.52    0.01    0.01    0.01    0.01    0.01    0.01    0.01    0.01    0.01    0.02    0.01    0.01    0.01    0.01    0.02    0.02    0.02    0.02    0.30    2.53
   17 126   195    40     1    62.7    62.2     0.4     0.0    8.51   46.23    0.02    2.53    0.48    5.99   70.25   14.92    0.00    0.00     0.0     0.0    0.00    0.00    0.00    0.01    0.01    0.26    2.51    0.02    0.01    0.02    0.01    0.01    0.01    0.01    0.01    0.01    0.02    0.02    0.02    0.02    0.02    0.02    0.02    0.02    0.02    0.27    2.53
   17 127   196    40     1    62.7    62.1     0.5     0.0    8.70   46.28    0.02    2.53    0.48    6.18   70.45   14.92    0.00    0.00     0.0     0.0    0.00    0.00    0.00    0.01    0.01    0.24    2.50    0.02    0.02    0.02    0.02    0.02    0.02    0.02    0.02    0.02    0.02    0.02    0.02    0.02    0.02    0.02    0.02    0.02    0.03    0.25    2.52
   17 128   197    40     1    62.7    62.0     0.6     0.0    8.91   46.34    0.02    2.53    0.48    6.39   70.66   14.92    0.00    0.00     0.0     0.0    0.00    0.00    0.00    0.01    0.01    0.21    2.48    0.03    0.02    0.02    0.02    0.02    0.02    0.02    0.02    0.02    0.03    0.03    0.02    0.03    0.02    0.02    0.02    0.02    0.03    0.23    2.51
   17 129   198    40     1    61.1    60.4     0.7     0.0    9.10   46.40    0.02    2.53    0.48    6.58   70.88   16.43    0.00    0.00     0.0     0.0    0.00    0.00    0.00    0.01    0.01    0.16    2.19    0.04    0.03    0.03    0.02    0.02    0.02    0.02    0.02    0.02    0.03    0.04    0.03    0.03    0.03    0.03    0.02    0.02    0.03    0.18    2.22
   17 130   199    40     1    60.3    59.6     0.7     0.0    9.28   46.47    0.02    2.53    0.48    6.76   71.12   17.23    0.00    0.00     0.0     0.0    0.00    0.00    0.00    0.01    0.01    0.14    2.04    0.03    0.02    0.03    0.02    0.02    0.02    0.02    0.02    0.02    0.03    0.03    0.03    0.03    0.03    0.03    0.02    0.02    0.03    0.16    2.07
   17 131   200    40     1    59.9    59.2     0.7     0.0    9.44   46.54    0.02    2.53    0.48    6.92   71.36   17.50    0.00    0.00     0.0     0.0    0.00    0.00    0.00    0.01    0.01    0.12    1.97    0.02    0.02    0.03    0.02    0.02    0.02    0.02    0.02    0.02    0.03    0.02    0.02    0.03    0.02    0.03    0.02    0.02    0.03    0.15    2.00
   17 132   201    40     1    59.8    59.1     0.7     0.0    9.60   46.61    0.02    2.53    0.48    7.07   71.60   17.50    0.00    0.00     0.0     0.0    0.00    0.00    0.00    0.01    0.01    0.11    1.95    0.02    0.02    0.02    0.02    0.02    0.02    0.02    0.02    0.02    0.03    0.02    0.02    0.02    0.02    0.02    0.02    0.02    0.03    0.13    1.98
   17 133   202    40     1    59.8    59.0     0.7     0.0    9.80   46.69    0.02    2.53    0.48    7.27   71.84   17.50    0.00    0.00     0.0     0.0    0.00    0.00    0.00    0.01    0.01    0.10    1.92    0.02    0.02    0.02    0.02    0.02    0.02    0.02    0.02    0.02    0.03    0.02    0.02    0.02    0.02    0.03    0.02    0.02    0.03    0.13    1.95
   17 134   203    40     1    59.8    59.0     0.8     0.0   10.05   46.77    0.02    2.53    0.48    7.52   72.09   17.50    0.00    0.00     0.0     0.0    0.00    0.00    0.00    0.01    0.01    0.09    1.89    0.03    0.02    0.02    0.02    0.02    0.02    0.02    0.02    0.02    0.03    0.03    0.02    0.03    0.03    0.03    0.03    0.03    0.03    0.12    1.92
   17 135   204    40     1    59.9    58.9     1.0     0.0   10.35   46.88    0.02    2.53    0.48    7.82   72.32   17.50    0.00    0.00     0.0     0.0    0.00    0.00    0.00    0.01    0.01    0.08    1.85    0.04    0.04    0.04    0.03    0.03    0.03    0.03    0.03    0.03    0.04    0.04    0.04    0.04    0.04    0.04    0.03    0.03    0.03    0.11    1.89
   17 136   205    40     1    58.0    56.9     1.1     0.0   10.69   47.00    0.02    2.53    0.48    8.16   72.58   19.41    0.00    0.00     0.0     0.0    0.01    0.01    0.01    0.01    0.01    0.07    1.56    0.05    0.04    0.05    0.04    0.04    0.03    0.03    0.03    0.03    0.04    0.06    0.05    0.06    0.04    0.04    0.04    0.04    0.04    0.10    1.60
   17 137   206    40     1    57.2    56.0     1.2     0.0   11.04   47.14    0.02    2.53    0.48    8.52   72.89   20.31    0.00    0.01     0.0     0.0    0.01    0.01    0.01    0.01    0.01    0.06    1.42    0.05    0.04    0.05    0.04    0.04    0.03    0.03    0.03    0.03    0.04    0.05    0.05    0.06    0.05    0.05    0.04    0.04    0.04    0.10    1.47
   17 138   207    40     1    56.9    55.7     1.2     0.0   11.39   47.28    0.02    2.53    0.48    8.86   73.22   20.57    0.00    0.01     0.0     0.0    0.01    0.01    0.01    0.01    0.01    0.06    1.36    0.04    0.04    0.05    0.04    0.04    0.03    0.04    0.03    0.04    0.05    0.04    0.04    0.06    0.05    0.05    0.04    0.04    0.04    0.10    1.41
   17 139   208    40     1    56.9    55.7     1.2     0.0   11.76   47.44    0.02    2.53    0.48    9.23   73.57   20.57    0.00    0.00     0.0     0.0    0.01    0.01    0.01    0.01    0.01    0.06    1.33    0.03    0.03    0.04    0.04    0.04    0.04    0.04    0.04    0.04    0.05    0.04    0.04    0.05    0.05    0.05    0.04    0.05    0.05    0.10    1.38
   17 140   209    40     1    57.0    55.7     1.3     0.0   12.14   47.61    0.02    2.53    0.48    9.61   73.92   20.57    0.00    0.00     0.0     0.0    0.01    0.01    0.01    0.01    0.01    0.06    1.29    0.04    0.03    0.04    0.04    0.04    0.04    0.04    0.04    0.04    0.05    0.04    0.04    0.05    0.05    0.05    0.05    0.05    0.05    0.10    1.34
   17 141   210    40     1    57.0    55.7     1.3     0.0   12.50   47.79    0.02    2.53    0.48    9.98   74.27   20.57    0.00    0.00     0.0     0.0    0.01    0.01    0.01    0.01    0.01    0.06    1.26    0.04    0.03    0.04    0.04    0.04    0.04    0.04    0.04    0.04    0.05    0.04    0.04    0.05    0.05    0.05    0.05    0.05    0.05    0.09    1.31
[...]
   17 167   236     0     0    56.5    54.6     1.9     0.0   23.18   25.86    0.02    1.87    0.00   21.31   44.06   23.22    0.00    0.05     0.1     0.1    0.14    0.13    0.12    0.13    0.13    0.19    0.83    0.07    0.08    0.09    0.08    0.08    0.07    0.07    0.07    0.06    0.06    0.13    0.13    0.19    0.22    0.22    0.19    0.20    0.20    0.24    0.89
   17 168   237     0     0    56.3    54.4     2.0     0.0   23.66   26.22    0.02    1.87    0.00   21.79   44.73   23.22    0.00    0.06     0.1     0.1    0.14    0.14    0.13    0.13    0.14    0.18    0.80    0.08    0.08    0.10    0.08    0.08    0.07    0.07    0.07    0.06    0.06    0.14    0.14    0.20    0.23    0.22    0.20    0.21    0.21    0.24    0.86
   17 169   238     0     0    56.1    54.1     2.0     0.0   24.10   26.58    0.02    1.87    0.00   22.23   45.41   23.22    0.00    0.07     0.1     0.1    0.15    0.15    0.13    0.14    0.14    0.18    0.77    0.07    0.08    0.10    0.08    0.08    0.07    0.07    0.07    0.06    0.06    0.15    0.15    0.21    0.24    0.23    0.21    0.21    0.21    0.24    0.83
   17 170   239     0     0    55.8    53.9     2.0     0.0   24.52   26.92    0.02    1.87    0.00   22.65   46.09   23.22    0.00    0.09     0.1     0.1    0.16    0.15    0.14    0.14    0.15    0.18    0.74    0.07    0.08    0.10    0.08    0.08    0.07    0.07    0.07    0.06    0.06    0.16    0.16    0.21    0.24    0.24    0.21    0.22    0.22    0.24    0.80
   17 171   240     0     0    55.6    53.6     2.0     0.0   24.94   27.27    0.02    1.87    0.00   23.07   46.77   23.22    0.00    0.10     0.1     0.1    0.17    0.16    0.14    0.15    0.15    0.18    0.72    0.07    0.09    0.10    0.08    0.08    0.07    0.07    0.07    0.06    0.06    0.17    0.17    0.22    0.25    0.24    0.21    0.22    0.22    0.24    0.78
   17 172   241     0     0    55.4    53.4     2.0     0.0   25.37   27.63    0.02    1.87    0.00   23.50   47.43   23.22    0.00    0.11     0.1     0.1    0.18    0.17    0.15    0.15    0.16    0.18    0.69    0.06    0.09    0.10    0.08    0.08    0.07    0.07    0.07    0.06    0.06    0.17    0.18    0.22    0.26    0.25    0.22    0.22    0.23    0.24    0.76
   17 173   242     0     0    55.2    53.2     2.0     0.0   25.82   28.01    0.02    1.87    0.00   23.95   48.06   23.22    0.00    0.12     0.1     0.1    0.19    0.18    0.16    0.16    0.16    0.19    0.67    0.06    0.10    0.10    0.08    0.08    0.07    0.07    0.07    0.06    0.06    0.18    0.20    0.24    0.27    0.26    0.23    0.23    0.23    0.25    0.74
   17 174   243     0     0    55.1    53.1     2.0     0.0   26.33   28.44    0.02    1.87    0.00   24.46   48.67   23.22    0.00    0.13     0.1     0.2    0.20    0.19    0.17    0.17    0.17    0.19    0.66    0.07    0.10    0.10    0.08    0.08    0.07    0.07    0.07    0.06    0.06    0.20    0.22    0.25    0.28    0.27    0.24    0.24    0.24    0.25    0.72
   17 175   244     0     0    55.0    53.0     2.0     0.0   26.87   28.91    0.02    1.87    0.00   25.00   49.26   23.22    0.00    0.14     0.1     0.2    0.22    0.21    0.18    0.18    0.18    0.20    0.64    0.08    0.11    0.09    0.07    0.08    0.07    0.07    0.07    0.06    0.06    0.22    0.25    0.26    0.29    0.28    0.25    0.25    0.25    0.26    0.70
   17 176   245     0     0    55.0    53.0     2.0     0.0   27.41   29.38    0.02    1.87    0.00   25.54   49.84   23.22    0.00    0.16     0.2     0.2    0.23    0.22    0.19    0.19    0.19    0.20    0.63    0.08    0.11    0.09    0.07    0.07    0.07    0.07    0.07    0.06    0.06    0.24    0.28    0.28    0.30    0.29    0.26    0.26    0.26    0.26    0.69
   17 177   246     0     0    54.9    52.9     2.0     0.0   27.93   29.84    0.02    1.87    0.00   26.06   50.41   23.22    0.00    0.18     0.2     0.2    0.25    0.23    0.20    0.20    0.20    0.21    0.61    0.09    0.12    0.09    0.07    0.07    0.07    0.07    0.07    0.06    0.06    0.27    0.31    0.29    0.32    0.31    0.27    0.27    0.27    0.27    0.68
   17 178   247     0     0    54.9    52.8     2.0     0.0   28.45   30.30    0.02    1.87    0.00   26.58   51.00   23.22    0.00    0.13     0.2     0.2    0.26    0.25    0.21    0.21    0.21    0.21    0.60    0.09    0.13    0.09    0.07    0.07    0.07    0.07    0.07    0.06    0.07    0.22    0.36    0.31    0.33    0.32    0.28    0.28    0.28    0.27    0.66
   17 179   248     0     0    54.8    52.7     2.1     0.0   28.99   30.74    0.02    1.87    0.00   27.12   51.59   23.22    0.00    0.11     0.2     0.3    0.27    0.25    0.22    0.22    0.22    0.22    0.60    0.11    0.16    0.08    0.06    0.07    0.06    0.07    0.07    0.06    0.07    0.23    0.40    0.37    0.33    0.32    0.28    0.29    0.28    0.28    0.66
   17 180   249     0     0    54.7    52.6     2.1     0.0   29.55   31.17    0.02    1.87    0.00   27.68   52.26   23.22    0.00    0.12     0.2     0.3    0.28    0.26    0.23    0.23    0.22    0.23    0.59    0.14    0.18    0.09    0.06    0.07    0.06    0.07    0.07    0.06    0.07    0.26    0.40    0.41    0.34    0.33    0.29    0.29    0.29    0.29    0.66
   17 181   250     0     0    54.6    52.4     2.2     0.0   30.12   31.59    0.02    1.87    0.00   28.25   52.96   23.22    0.00    0.13     0.2     0.3    0.30    0.27    0.24    0.24    0.23    0.24    0.59    0.14    0.21    0.09    0.06    0.07    0.06    0.06    0.06    0.06    0.07    0.27    0.40    0.38    0.36    0.34    0.30    0.30    0.30    0.30    0.65
   17 182   251     0     0    54.4    52.2     2.2     0.0   30.70   32.03    0.02    1.87    0.00   28.83   53.72   23.22    0.00    0.13     0.2     0.3    0.31    0.28    0.24    0.24    0.24    0.25    0.59    0.13    0.23    0.09    0.06    0.06    0.06    0.06    0.06    0.06    0.07    0.26    0.40    0.36    0.36    0.34    0.30    0.31    0.30    0.31    0.65
   17 183   252     0     0    54.2    52.0     2.2     0.0   31.27   32.44    0.02    1.87    0.00   29.40   54.47   23.22    0.00    0.12     0.2     0.2    0.31    0.28    0.25    0.25    0.25    0.25    0.58    0.12    0.25    0.09    0.06    0.06    0.06    0.06    0.06    0.06    0.06    0.24    0.42    0.33    0.37    0.35    0.31    0.31    0.31    0.31    0.65
   17 184   253     0     0    54.0    51.8     2.2     0.0   31.83   32.83    0.02    1.87    0.00   29.96   55.19   23.22    0.00    0.11     0.2     0.2    0.32    0.29    0.26    0.26    0.25    0.26    0.57    0.13    0.29    0.09    0.06    0.06    0.06    0.06    0.06    0.06    0.06    0.24    0.45    0.29    0.38    0.36    0.32    0.32    0.31    0.31    0.64
   17 185   254     0     0    53.9    51.7     2.2     0.0   32.41   33.22    0.02    1.87    0.00   30.54   55.91   23.22    0.00    0.12     0.2     0.2    0.33    0.30    0.26    0.26    0.26    0.26    0.56    0.14    0.33    0.09    0.06    0.06    0.06    0.06    0.06    0.06    0.06    0.26    0.50    0.26    0.38    0.36    0.32    0.32    0.32    0.31    0.63
   17 186   255     0     0    53.8    51.5     2.3     0.0   33.00   33.61    0.02    1.87    0.00   31.13   56.62   23.22    0.00    0.13     0.2     0.2    0.33    0.31    0.27    0.27    0.26    0.26    0.55    0.16    0.37    0.09    0.06    0.06    0.06    0.06    0.06    0.06    0.06    0.29    0.56    0.24    0.39    0.37    0.33    0.33    0.32    0.32    0.62
   17 187   256     0     0    53.7    51.3     2.4     0.0   33.63   34.03    0.02    1.87    0.00   31.76   57.32   23.22    0.00    0.16     0.2     0.1    0.34    0.32    0.28    0.27    0.27    0.26    0.54    0.18    0.42    0.09    0.06    0.06    0.06    0.06    0.06    0.05    0.06    0.34    0.62    0.22    0.40    0.38    0.33    0.33    0.33    0.32    0.61
   17 188   257     0     0    53.7    51.2     2.4     0.0   34.30   34.50    0.02    1.87    0.00   32.43   58.03   23.22    0.00    0.19     0.2     0.1    0.35    0.33    0.29    0.28    0.27    0.27    0.53    0.21    0.46    0.09    0.06    0.06    0.05    0.06    0.06    0.05    0.06    0.40    0.70    0.22    0.41    0.39    0.34    0.34    0.33    0.32    0.60
   17 189   258     0     0    53.7    51.2     2.5     0.0   35.02   35.01    0.02    1.87    0.00   33.15   58.73   23.22    0.00    0.24     0.3     0.1    0.36    0.34    0.30    0.29    0.28    0.27    0.53    0.22    0.51    0.09    0.05    0.05    0.05    0.06    0.06    0.05    0.06    0.46    0.80    0.22    0.42    0.40    0.35    0.35    0.34    0.33    0.59
   17 190   259     0     0    53.7    51.2     2.6     0.0   35.80   35.58    0.02    1.87    0.00   33.93   59.45   23.22    0.00    0.13     0.4     0.2    0.39    0.35    0.31    0.30    0.29    0.28    0.52    0.23    0.55    0.10    0.05    0.05    0.05    0.06    0.06    0.05    0.06    0.36    0.93    0.31    0.45    0.41    0.36    0.36    0.35    0.33    0.59
   17 191   260     0     0    53.9    51.1     2.8     0.0   36.69   36.12    0.02    1.87    0.00   34.82   60.18   23.22    0.00    0.16     0.4     0.3    0.42    0.36    0.31    0.31    0.30    0.29    0.53    0.29    0.67    0.11    0.06    0.05    0.05    0.06    0.06    0.05    0.06    0.45    1.05    0.39    0.48    0.41    0.37    0.36    0.36    0.34    0.59
   17 192   261     0     0    54.1    51.1     3.0     0.0   37.63   36.71    0.02    1.87    0.00   35.76   60.96   23.22    0.00    0.20     0.4     0.3    0.44    0.37    0.32    0.32    0.31    0.29    0.53    0.36    0.76    0.13    0.07    0.05    0.05    0.05    0.06    0.05    0.06    0.56    1.18    0.44    0.51    0.42    0.37    0.37    0.36    0.35    0.59
   17 193   262     0     0    54.1    51.0     3.1     0.0   38.61   37.32    0.02    1.87    0.00   36.74   61.89   23.22    0.00    0.25     0.5     0.3    0.43    0.38    0.33    0.33    0.32    0.30    0.53    0.44    0.81    0.14    0.08    0.05    0.05    0.05    0.05    0.05    0.06    0.68    1.27    0.48    0.51    0.43    0.38    0.38    0.37    0.36    0.60
   17 194   263     0     0    54.0    50.9     3.2     0.0   39.59   37.94    0.02    1.87    0.00   37.73   62.94   23.22    0.00    0.30     0.5     0.3    0.35    0.43    0.34    0.33    0.32    0.31    0.53    0.51    0.84    0.14    0.08    0.05    0.05    0.05    0.05    0.05    0.06    0.81    1.33    0.47    0.43    0.48    0.39    0.39    0.38    0.36    0.60
   17 195   264     0     0    53.7    50.6     3.1     0.0   40.55   38.53    0.02    1.87    0.00   38.69   64.21   23.22    0.00    0.29     0.5     0.3    0.33    0.43    0.34    0.34    0.33    0.32    0.54    0.49    0.81    0.13    0.08    0.05    0.05    0.05    0.05    0.05    0.06    0.79    1.29    0.46    0.41    0.49    0.39    0.39    0.38    0.37    0.60
   17 196   265     0     0    53.5    50.4     3.2     0.0   41.39   39.04    0.02    1.87    0.00   39.53   65.25   23.22    0.00    0.33     0.5     0.3    0.28    0.46    0.35    0.35    0.33    0.32    0.54    0.57    0.82    0.13    0.08    0.06    0.04    0.05    0.05    0.05    0.06    0.90    1.29    0.43    0.37    0.52    0.39    0.40    0.38    0.37    0.60
   17 197   266     0     0    53.1    50.0     3.1     0.0   42.22   39.55    0.02    1.87    0.00   40.35   66.52   23.22    0.00    0.36     0.5     0.3    0.25    0.43    0.35    0.35    0.34    0.33    0.54    0.56    0.78    0.12    0.08    0.07    0.04    0.05    0.05    0.05    0.06    0.91    1.24    0.38    0.33    0.50    0.40    0.40    0.39    0.38    0.60
   17 198   267     0     0    52.6    49.6     3.0     0.0   43.02   40.03    0.02    1.87    0.00   41.16   67.82   23.22    0.00    0.37     0.4     0.2    0.22    0.39    0.36    0.35    0.34    0.33    0.54    0.52    0.74    0.10    0.08    0.07    0.04    0.05    0.05    0.05    0.06    0.89    1.18    0.32    0.30    0.46    0.40    0.40    0.39    0.38    0.60
   17 199   268     0     0    52.2    49.3     2.9     0.0   43.79   40.50    0.02    1.87    0.00   41.93   68.97   23.22    0.00    0.41     0.4     0.2    0.20    0.36    0.36    0.36    0.34    0.34    0.55    0.52    0.72    0.09    0.08    0.07    0.04    0.05    0.05    0.05    0.06    0.93    1.15    0.28    0.28    0.43    0.40    0.40    0.39    0.39    0.60
   17 200   269     0     0    52.0    49.0     2.9     0.0   44.62   41.00    0.02    1.87    0.00   42.75   70.02   23.22    0.00    0.43     0.4     0.2    0.18    0.33    0.37    0.36    0.35    0.34    0.54    0.55    0.73    0.09    0.08    0.08    0.04    0.05    0.05    0.05    0.06    0.97    1.17    0.25    0.26    0.41    0.41    0.41    0.40    0.39    0.60
   17 201   270     0     0    51.9    48.9     3.0     0.0   45.53   41.58    0.02    1.87    0.00   43.66   71.00   23.22    0.00    0.49     0.5     0.1    0.16    0.31    0.37    0.37    0.36    0.35    0.54    0.58    0.75    0.09    0.08    0.08    0.04    0.05    0.05    0.05    0.06    1.08    1.24    0.23    0.24    0.39    0.41    0.42    0.40    0.39    0.60
   17 202   271     0     0    51.9    48.9     3.1     0.0   46.49   42.21    0.02    1.87    0.00   44.62   71.92   23.22    0.00    0.60     0.6     0.1    0.15    0.29    0.38    0.38    0.37    0.35    0.54    0.61    0.78    0.09    0.08    0.08    0.04    0.04    0.05    0.05    0.06    1.21    1.34    0.22    0.24    0.37    0.42    0.42    0.41    0.40    0.59
   17 203   272     0     0    52.0    48.9     3.1     0.0   47.49   42.91    0.02    1.87    0.00   45.62   72.83   23.22    0.00    0.74     0.6     0.1    0.15    0.28    0.39    0.39    0.38    0.36    0.54    0.61    0.81    0.09    0.08    0.09    0.04    0.04    0.05    0.05    0.06    1.35    1.44    0.22    0.23    0.36    0.43    0.43    0.42    0.40    0.59
   17 204   273     0     0    52.1    48.9     3.2     0.0   48.59   43.65    0.02    1.87    0.00   46.72   73.82   23.22    0.00    0.77     0.7     0.1    0.15    0.27    0.40    0.40    0.38    0.36    0.54    0.67    0.83    0.10    0.09    0.09    0.04    0.04    0.04    0.05    0.06    1.45    1.55    0.22    0.23    0.36    0.44    0.44    0.43    0.41    0.59
   17 205   274     0     0    52.3    49.0     3.3     0.0   49.65   44.40    0.02    1.87    0.00   47.78   74.76   23.22    0.00    0.83     0.8     0.1    0.15    0.26    0.41    0.41    0.39    0.37    0.54    0.70    0.85    0.10    0.09    0.09    0.04    0.04    0.04    0.05    0.06    1.54    1.66    0.22    0.24    0.36    0.45    0.45    0.44    0.42    0.59
   17 206   275     0     0    52.3    49.0     3.3     0.0   50.67   45.07    0.02    1.87    0.00   48.80   75.72   23.22    0.00    0.39     0.8     0.4    0.20    0.27    0.42    0.42    0.40    0.38    0.54    0.74    0.87    0.10    0.09    0.09    0.04    0.04    0.04    0.05    0.06    1.14    1.71    0.55    0.29    0.36    0.45    0.46    0.45    0.42    0.60
   17 207   276     0     0    52.6    49.0     3.6     0.0   51.55   45.59    0.02    1.87    0.00   49.68   76.33   23.22    0.00    0.31     0.6     0.8    0.22    0.35    0.51    0.42    0.41    0.38    0.54    0.86    0.98    0.11    0.09    0.09    0.04    0.04    0.04    0.05    0.06    1.17    1.58    0.88    0.31    0.44    0.55    0.46    0.45    0.43    0.60
   17 208   277     0     0    53.0    49.2     3.8     0.0   52.34   46.05    0.02    1.87    0.00   50.47   76.68   23.22    0.00    0.32     0.6     0.7    0.30    0.34    0.55    0.44    0.41    0.39    0.55    0.97    1.08    0.13    0.11    0.11    0.04    0.04    0.04    0.05    0.06    1.29    1.69    0.80    0.41    0.45    0.60    0.48    0.46    0.43    0.61
   17 209   278     0     0    53.3    49.3     3.9     0.0   53.06   46.52    0.02    1.87    0.00   51.19   77.17   23.22    0.00    0.41     0.6     0.6    0.32    0.32    0.43    0.55    0.51    0.39    0.55    1.04    1.13    0.14    0.11    0.12    0.05    0.04    0.04    0.04    0.06    1.45    1.75    0.70    0.44    0.44    0.49    0.59    0.56    0.44    0.61
   17 210   279     0     0    53.4    49.5     4.0     0.0   53.85   47.08    0.02    1.87    0.00   51.98   77.80   23.22    0.00    0.59     0.7     0.5    0.32    0.31    0.39    0.51    0.61    0.40    0.56    1.02    1.14    0.13    0.12    0.12    0.06    0.05    0.05    0.04    0.06    1.62    1.81    0.63    0.44    0.43    0.45    0.56    0.65    0.44    0.62
   17 211   280     0     0    53.8    49.8     4.0     0.0   54.75   47.74    0.02    1.87    0.00   52.88   78.33   23.22    0.00    0.86     0.8     0.5    0.32    0.32    0.39    0.51    0.59    0.41    0.58    1.03    1.14    0.13    0.12    0.12    0.07    0.06    0.05    0.04    0.06    1.89    1.92    0.60    0.43    0.43    0.46    0.56    0.65    0.45    0.64
   17 212   281     0     0    54.6    50.4     4.2     0.0   55.79   48.54    0.02    1.87    0.00   53.92   78.54   23.22    0.00    1.25     0.9     0.4    0.33    0.33    0.40    0.52    0.60    0.42    0.60    1.11    1.19    0.14    0.12    0.12    0.08    0.07    0.06    0.04    0.06    2.37    2.11    0.58    0.45    0.45    0.48    0.58    0.66    0.46    0.66
   17 213   282     0     0    55.7    51.4     4.3     0.0   56.94   49.52    0.02    1.87    0.00   55.07   78.59   23.22    0.00    1.51     1.2     0.5    0.36    0.36    0.42    0.54    0.60    0.43    0.62    1.18    1.24    0.14    0.12    0.12    0.08    0.07    0.07    0.04    0.06    2.69    2.45    0.66    0.48    0.48    0.51    0.61    0.68    0.47    0.68
   17 214   283     0     0    57.0    52.5     4.6     0.0   58.25   50.62    0.02    1.87    0.00   56.39   78.59   23.22    0.00    2.03     1.4     0.6    0.40    0.40    0.45    0.56    0.62    0.44    0.65    1.32    1.30    0.14    0.12    0.12    0.09    0.08    0.08    0.04    0.06    3.35    2.72    0.73    0.53    0.53    0.54    0.64    0.70    0.49    0.70
   17 215   284     0     0    58.4    53.8     4.6     0.0   59.67   51.94    0.02    1.87    0.00   57.80   78.59   23.22    0.00    2.48     1.8     0.7    0.45    0.44    0.49    0.59    0.64    0.46    0.67    1.40    1.31    0.14    0.12    0.12    0.09    0.09    0.08    0.04    0.06    3.88    3.10    0.85    0.57    0.56    0.58    0.67    0.72    0.50    0.73
   17 216   285     0     0    59.9    55.1     4.8     0.0   61.11   53.23    0.02    1.87    0.00   59.24   78.59   23.22    0.00    2.93     2.0     0.8    0.51    0.49    0.53    0.62    0.66    0.47    0.69    1.52    1.35    0.14    0.12    0.12    0.10    0.09    0.09    0.04    0.06    4.45    3.39    0.98    0.64    0.61    0.63    0.71    0.74    0.51    0.75
   17 217   286     0     0    61.3    56.5     4.8     0.0   62.57   54.67    0.02    1.87    0.00   60.70   78.59   23.22    0.00    3.81     2.3     0.8    0.54    0.53    0.56    0.64    0.68    0.48    0.71    1.54    1.35    0.14    0.12    0.12    0.10    0.09    0.09    0.04    0.06    5.34    3.69    0.97    0.67    0.65    0.66    0.74    0.77    0.53    0.77
   17 218   287     0     0    62.7    58.0     4.8     0.0   63.98   56.14    0.02    1.87    0.00   62.11   78.59   23.22    0.00    5.09     2.5     0.8    0.57    0.56    0.60    0.67    0.70    0.50    0.74    1.50    1.32    0.14    0.12    0.12    0.10    0.09    0.09    0.04    0.06    6.59    3.80    0.95    0.69    0.68    0.69    0.77    0.79    0.54    0.80
   17 219   288     0     0    64.0    59.3     4.7     0.0   65.24   57.44    0.02    1.87    0.00   63.37   78.59   23.22    0.00    5.55     2.8     0.8    0.61    0.59    0.62    0.70    0.73    0.51    0.75    1.44    1.31    0.14    0.12    0.12    0.10    0.10    0.09    0.04    0.06    7.00    4.15    0.99    0.73    0.71    0.72    0.80    0.82    0.55    0.81
