*SOIL-PLANT-ATMOSPHERE MODULE OUTPUT FILE

*DSSAT Cropping System Model Ver. 4.8.5.000 -release  FEB 02, 2026 11:46:55

*RUN   1        : 1                         WHAPS048 TUDU1501    1
 MODEL          : WHAPS048 - Wheat
 EXPERIMENT     : TUDU1501 WH
 DATA PATH      :
 TREATMENT  1   : 1                         WHAPS048
  
!                                                                                                                                                                                        Soil evaporation (mm/d) by soil depth (cm):
!                                                                                                                                                                                        0-5    5-15   15-20   20-30   30-40   40-50   50-60   60-70   70-90  90-210
@YEAR DOY   DAS   SRAA  TMAXA  TMINA    REFA    EOAA    EOPA    EOSA    ETAA    EPAA    ESAA    EFAA    EMAA    EOAC    ETAC    EPAC    ESAC    EFAC    EMAC    KCAA    KBSA    KEAA    ES1D    ES2D    ES3D    ES4D    ES5D    ES6D    ES7D    ES8D    ES9D  ES10D   TRWUD   TWUPD
   15 077     1  16.00  14.00   0.00 -99.000   3.046   0.000   3.046   3.046   0.000   3.046   0.000   0.000    3.05    3.05    0.00    3.05    0.00    0.00 -99.000 -99.000 -99.000   0.530   0.419   0.151   0.232   0.200   0.167   0.144   0.127   0.221   0.856   0.000   0.000
   15 078     2  17.00  13.00  -1.00 -99.000   3.153   0.000   3.153   3.153   0.000   3.153   0.000   0.000    6.20    6.20    0.00    6.20    0.00    0.00 -99.000 -99.000 -99.000   0.553   0.435   0.156   0.240   0.206   0.172   0.148   0.131   0.228   0.884   0.000   0.000
   15 079     3  17.00  13.00  -2.00 -99.000   3.111   0.000   3.111   1.087   0.000   1.087   0.000   0.000    9.31    7.29    0.00    7.29    0.00    0.00 -99.000 -99.000 -99.000   0.893   0.117   0.020   0.020   0.011   0.007   0.004   0.003   0.004   0.008   0.000   0.000
   15 080     4  13.00  14.00  -3.00 -99.000   2.383   0.000   2.383   1.092   0.000   1.092   0.000   0.000   11.69    8.38    0.00    8.38    0.00    0.00 -99.000 -99.000 -99.000   0.898   0.116   0.020   0.020   0.011   0.007   0.004   0.003   0.004   0.008   0.000   0.000
   15 081     5   5.00   5.00   2.00 -99.000   0.834   0.000   0.834   0.834   0.000   0.834   0.000   0.000   12.53    9.21    0.00    9.21    0.00    0.00 -99.000 -99.000 -99.000   0.686   0.088   0.015   0.015   0.008   0.005   0.003   0.002   0.003   0.006   0.000   0.000
   15 082     6   7.00   6.00   0.00 -99.000   1.157   0.000   1.157   1.020   0.000   1.020   0.000   0.000   13.68   10.23    0.00   10.23    0.00    0.00 -99.000 -99.000 -99.000   0.827   0.115   0.020   0.020   0.011   0.007   0.004   0.003   0.004   0.008   0.000   0.000
   15 083     7  15.00  15.00  -2.00 -99.000   2.819   0.000   2.819   0.933   0.000   0.933   0.000   0.000   16.50   11.17    0.00   11.17    0.00    0.00 -99.000 -99.000 -99.000   0.741   0.114   0.020   0.020   0.011   0.007   0.004   0.003   0.004   0.008   0.000   0.000
   15 084     8  14.00  15.00   2.00 -99.000   2.735   0.000   2.735   0.856   0.000   0.856   0.000   0.000   19.24   12.02    0.00   12.02    0.00    0.00 -99.000 -99.000 -99.000   0.664   0.114   0.020   0.020   0.011   0.007   0.004   0.003   0.004   0.008   0.000   0.000
   15 085     9   3.00   7.00   4.00 -99.000   0.524   0.000   0.524   0.524   0.000   0.524   0.000   0.000   19.76   12.55    0.00   12.55    0.00    0.00 -99.000 -99.000 -99.000   0.397   0.075   0.013   0.013   0.007   0.004   0.003   0.002   0.003   0.006   0.000   0.000
   15 086    10  10.00   9.00   3.00 -99.000   1.784   0.000   1.784   0.796   0.000   0.796   0.000   0.000   21.54   13.34    0.00   13.34    0.00    0.00 -99.000 -99.000 -99.000   0.606   0.113   0.020   0.020   0.011   0.007   0.004   0.003   0.004   0.008   0.000   0.000
   15 087    11  17.00  11.00   1.00 -99.000   3.072   0.000   3.072   0.782   0.000   0.782   0.000   0.000   24.62   14.12    0.00   14.12    0.00    0.00 -99.000 -99.000 -99.000   0.593   0.112   0.020   0.020   0.011   0.007   0.004   0.003   0.004   0.008   0.000   0.000
   15 088    12   6.00  12.00   6.00 -99.000   1.159   0.000   1.159   0.720   0.000   0.720   0.000   0.000   25.78   14.84    0.00   14.84    0.00    0.00 -99.000 -99.000 -99.000   0.532   0.111   0.020   0.020   0.011   0.007   0.004   0.003   0.004   0.008   0.000   0.000
   15 089    13   9.00   9.00   3.00 -99.000   1.600   0.000   1.600   0.980   0.000   0.980   0.000   0.000   27.38   15.82    0.00   15.82    0.00    0.00 -99.000 -99.000 -99.000   0.789   0.113   0.020   0.020   0.011   0.007   0.004   0.003   0.004   0.008   0.000   0.000
   15 090    14   8.00  13.00   1.00 -99.000   1.517   0.019   1.499   1.517   0.019   1.499   0.000   0.000   28.89   17.34    0.02   17.32    0.00    0.00 -99.000 -99.000 -99.000   0.297   0.204   0.070   0.109   0.095   0.079   0.069   0.061   0.105   0.410   0.002   0.007
   15 091    15  13.00   6.00   0.00 -99.000   2.171   0.030   2.141   2.154   0.014   2.141   0.000   0.000   31.06   19.50    0.03   19.46    0.00    0.00 -99.000 -99.000 -99.000   0.450   0.302   0.100   0.151   0.131   0.110   0.095   0.084   0.147   0.571   0.001   0.007
   15 092    16   7.00   6.00   0.00 -99.000   1.171   0.018   1.154   1.159   0.005   1.154   0.000   0.000   32.24   20.65    0.04   20.62    0.00    0.00 -99.000 -99.000 -99.000   0.251   0.167   0.056   0.080   0.069   0.058   0.050   0.044   0.077   0.301   0.001   0.007
   15 093    17  20.00   9.00  -1.00 -99.000   3.504   0.056   3.448   3.452   0.004   3.448   0.000   0.000   35.74   24.11    0.04   24.06    0.00    0.00 -99.000 -99.000 -99.000   0.695   0.503   0.171   0.258   0.212   0.176   0.152   0.135   0.234   0.914   0.000   0.007
   15 094    18   7.00   5.00   1.00 -99.000   1.157   0.022   1.136   1.153   0.017   1.136   0.000   0.000   36.90   25.26    0.06   25.20    0.00    0.00 -99.000 -99.000 -99.000   0.232   0.165   0.057   0.088   0.070   0.057   0.049   0.044   0.076   0.298   0.002   0.007
   15 095    19  13.00   6.00  -2.00 -99.000   2.123   0.043   2.081   2.084   0.003   2.081   0.000   0.000   39.02   27.34    0.06   27.28    0.00    0.00 -99.000 -99.000 -99.000   0.409   0.302   0.104   0.163   0.130   0.108   0.093   0.081   0.141   0.551   0.000   0.007
   15 096    20  10.00   6.00  -2.00 -99.000   1.622   0.034   1.588   1.597   0.009   1.588   0.000   0.000   40.64   28.94    0.07   28.87    0.00    0.00 -99.000 -99.000 -99.000   0.294   0.231   0.079   0.126   0.101   0.085   0.073   0.063   0.109   0.426   0.001   0.007
   15 097    21  20.00   8.00  -2.00 -99.000   3.356   0.074   3.282   3.290   0.008   3.282   0.000   0.000   44.00   32.23    0.08   32.15    0.00    0.00 -99.000 -99.000 -99.000   0.596   0.477   0.164   0.261   0.209   0.178   0.153   0.130   0.227   0.888   0.001   0.007
   15 098    22  19.00  13.00   0.00 -99.000   3.545   0.086   3.459   1.128   0.021   1.107   0.000   0.000   47.54   33.36    0.10   33.26    0.00    0.00 -99.000 -99.000 -99.000   0.906   0.123   0.021   0.021   0.011   0.007   0.004   0.003   0.004   0.008   0.002   0.007
   15 099    23  20.00  18.00   2.00 -99.000   4.097   0.122   3.975   1.065   0.049   1.016   0.000   0.000   51.64   34.42    0.15   34.27    0.00    0.00 -99.000 -99.000 -99.000   0.815   0.122   0.020   0.021   0.011   0.007   0.004   0.003   0.004   0.008   0.005   0.007
   15 100    24  20.00  21.00   1.00 -99.000   4.217   0.158   4.060   1.040   0.109   0.932   0.000   0.000   55.86   35.46    0.26   35.21    0.00    0.00 -99.000 -99.000 -99.000   0.732   0.121   0.020   0.021   0.011   0.007   0.004   0.003   0.004   0.008   0.011   0.007
   15 101    25  13.00  18.00   5.00 -99.000   2.715   0.124   2.592   1.009   0.157   0.852   0.000   0.000   58.57   36.47    0.41   36.06    0.00    0.00 -99.000 -99.000 -99.000   0.653   0.120   0.020   0.021   0.011   0.007   0.004   0.003   0.004   0.008   0.016   0.007
   15 102    26  15.00  18.00   5.00 -99.000   3.119   0.169   2.950   0.892   0.113   0.779   0.000   0.000   61.69   37.36    0.53   36.84    0.00    0.00 -99.000 -99.000 -99.000   0.581   0.119   0.020   0.021   0.011   0.007   0.004   0.003   0.004   0.008   0.011   0.004
   15 103    27  15.00  18.00   5.00 -99.000   3.105   0.203   2.902   0.863   0.148   0.715   0.000   0.000   64.80   38.23    0.67   37.55    0.00    0.00 -99.000 -99.000 -99.000   0.519   0.118   0.020   0.021   0.011   0.007   0.004   0.003   0.004   0.008   0.015   0.002
   15 104    28  20.00  18.00   5.00 -99.000   4.122   0.324   3.798   0.836   0.178   0.657   0.000   0.000   68.92   39.06    0.85   38.21    0.00    0.00 -99.000 -99.000 -99.000   0.462   0.117   0.020   0.021   0.011   0.007   0.004   0.003   0.004   0.008   0.018   0.002
   15 105    29  23.00  23.00   5.00 -99.000   5.054   0.491   4.564   0.862   0.257   0.605   0.000   0.000   73.97   39.92    1.11   38.81    0.00    0.00 -99.000 -99.000 -99.000   0.412   0.115   0.020   0.021   0.011   0.007   0.004   0.003   0.004   0.008   0.026   0.002
   15 106    30  14.00  21.00   9.00 -99.000   3.088   0.367   2.721   1.091   0.532   0.559   0.000   0.000   77.06   41.02    1.64   39.37    0.00    0.00 -99.000 -99.000 -99.000   0.367   0.113   0.020   0.021   0.011   0.007   0.004   0.003   0.004   0.008   0.053   0.002
   15 107    31   8.00  16.00   5.00 -99.000   1.579   0.212   1.367   1.620   0.252   1.367   0.000   0.000   78.64   42.63    1.89   40.74    0.00    0.00 -99.000 -99.000 -99.000   0.219   0.213   0.075   0.111   0.088   0.075   0.064   0.054   0.095   0.373   0.025   0.002
   15 108    32  18.00  10.00   0.00 -99.000   3.175   0.455   2.720   2.833   0.113   2.720   0.000   0.000   81.81   45.47    2.01   43.46    0.00    0.00 -99.000 -99.000 -99.000   0.552   0.413   0.141   0.209   0.166   0.139   0.121   0.105   0.182   0.692   0.011   0.008
   15 109    33  24.00  12.00   0.00 -99.000   4.332   0.659   3.675   3.844   0.169   3.675   0.000   0.000   86.15   49.31    2.18   47.14    0.00    0.00 -99.000 -99.000 -99.000   0.688   0.541   0.186   0.288   0.229   0.194   0.171   0.152   0.261   0.963   0.017   0.008
   15 110    34  24.00  16.00   0.00 -99.000   4.586   0.752   3.835   4.139   0.304   3.835   0.000   0.000   90.73   53.45    2.48   50.97    0.00    0.00 -99.000 -99.000 -99.000   0.679   0.558   0.193   0.305   0.243   0.206   0.182   0.162   0.279   1.028   0.030   0.008
   15 111    35  25.00  19.00   1.00 -99.000   5.015   0.924   4.093   1.611   0.571   1.039   0.000   0.000   95.75   55.06    3.05   52.01    0.00    0.00 -99.000 -99.000 -99.000   0.839   0.121   0.021   0.021   0.011   0.007   0.005   0.003   0.004   0.008   0.057   0.008
   15 112    36  24.00  19.00   2.00 -99.000   4.818   1.028   3.791   1.824   0.896   0.928   0.000   0.000  100.56   56.89    3.95   52.94    0.00    0.00 -99.000 -99.000 -99.000   0.730   0.119   0.020   0.021   0.011   0.007   0.005   0.003   0.004   0.008   0.090   0.009
   15 113    37  15.00  12.00   0.00 -99.000   2.622   0.641   1.982   1.803   0.985   0.818   0.000   0.000  103.19   58.69    4.93   53.76    0.00    0.00 -99.000 -99.000 -99.000   0.623   0.116   0.020   0.021   0.011   0.007   0.005   0.003   0.004   0.008   0.098   0.010
   15 114    38  24.00  18.00   0.00 -99.000   4.588   1.176   3.414   1.089   0.365   0.724   0.000   0.000  107.77   59.78    5.30   54.48    0.00    0.00 -99.000 -99.000 -99.000   0.533   0.113   0.020   0.021   0.011   0.007   0.005   0.003   0.004   0.008   0.036   0.006
   15 115    39  12.00  19.00   3.00 -99.000   2.384   0.669   1.715   1.837   1.126   0.711   0.000   0.000  110.16   61.61    6.42   55.19    0.00    0.00 -99.000 -99.000 -99.000   0.522   0.111   0.020   0.020   0.011   0.007   0.005   0.003   0.004   0.008   0.113   0.005
   15 116    40  19.00  20.00  10.00 -99.000   4.065   1.270   2.797   1.548   0.814   0.734   0.000   0.000  114.22   63.16    7.24   55.93    0.00    0.00 -99.000 -99.000 -99.000   0.550   0.107   0.020   0.020   0.011   0.007   0.005   0.003   0.004   0.008   0.081   0.006
   15 117    41  21.00  22.00   6.00 -99.000   4.425   1.572   2.856   1.890   0.956   0.935   0.000   0.000  118.65   65.05    8.19   56.86    0.00    0.00 -99.000 -99.000 -99.000   0.753   0.105   0.019   0.020   0.011   0.007   0.005   0.003   0.004   0.008   0.096   0.007
   15 118    42   8.00  12.00   4.00 -99.000   1.434   0.562   0.873   2.659   1.786   0.873   0.000   0.000  120.08   67.71    9.98   57.73    0.00    0.00 -99.000 -99.000 -99.000   0.178   0.112   0.040   0.066   0.055   0.047   0.041   0.037   0.063   0.234   0.179   0.014
   15 119    43  22.00  13.00   0.00 -99.000   3.852   1.582   2.273   2.585   0.311   2.273   0.000   0.000  123.93   70.30   10.29   60.01    0.00    0.00 -99.000 -99.000 -99.000   0.455   0.308   0.103   0.171   0.141   0.121   0.107   0.095   0.165   0.608   0.031   0.015
   15 120    44  16.00  15.00   5.00 -99.000   3.026   1.281   1.747   2.665   0.918   1.747   0.000   0.000  126.96   72.96   11.21   61.75    0.00    0.00 -99.000 -99.000 -99.000   0.339   0.243   0.078   0.131   0.109   0.093   0.083   0.074   0.127   0.470   0.092   0.016
   15 121    45   8.00   9.00   7.00 -99.000   1.399   0.629   0.771   1.582   0.811   0.771   0.000   0.000  128.36   74.54   12.02   62.52    0.00    0.00 -99.000 -99.000 -99.000   0.158   0.120   0.040   0.060   0.046   0.039   0.034   0.030   0.052   0.192   0.081   0.016
   15 122    46  12.00  13.00   7.00 -99.000   2.244   1.049   1.197   1.279   0.082   1.197   0.000   0.000  130.60   75.82   12.10   63.72    0.00    0.00 -99.000 -99.000 -99.000   0.244   0.188   0.071   0.100   0.074   0.060   0.052   0.045   0.077   0.285   0.008   0.018
   15 123    47   9.00  16.00  10.00 -99.000   1.796   0.885   0.913   1.344   0.431   0.913   0.000   0.000  132.40   77.17   12.53   64.63    0.00    0.00 -99.000 -99.000 -99.000   0.191   0.145   0.053   0.076   0.058   0.047   0.040   0.034   0.058   0.211   0.043   0.018
   15 124    48  16.00  20.00  14.00 -99.000   3.483   1.826   1.659   2.149   0.490   1.659   0.000   0.000  135.88   79.31   13.02   66.29    0.00    0.00 -99.000 -99.000 -99.000   0.329   0.251   0.087   0.135   0.105   0.087   0.075   0.065   0.111   0.414   0.049   0.020
   15 125    49  12.00  25.00  12.00 -99.000   2.702   1.522   1.182   2.153   0.971   1.182   0.000   0.000  138.58   81.47   13.99   67.47    0.00    0.00 -99.000 -99.000 -99.000   0.234   0.173   0.062   0.094   0.075   0.062   0.054   0.047   0.080   0.302   0.097   0.020
   15 126    50  14.00  14.00   8.00 -99.000   2.606   1.565   1.043   3.052   2.009   1.043   0.000   0.000  141.19   84.52   16.00   68.52    0.00    0.00 -99.000 -99.000 -99.000   0.214   0.159   0.056   0.086   0.066   0.054   0.046   0.040   0.067   0.253   0.201   0.022
   15 127    51  22.00  18.00   8.00 -99.000   4.330   2.684   1.650   2.326   0.675   1.650   0.000   0.000  145.52   86.84   16.68   70.17    0.00    0.00 -99.000 -99.000 -99.000   0.316   0.248   0.085   0.136   0.105   0.086   0.075   0.065   0.111   0.423   0.068   0.023
   15 128    52  23.00  22.00   8.00 -99.000   4.744   3.040   1.708   3.571   1.863   1.708   0.000   0.000  150.26   90.42   18.54   71.88    0.00    0.00 -99.000 -99.000 -99.000   0.310   0.248   0.085   0.137   0.108   0.090   0.079   0.070   0.119   0.462   0.186   0.025
   15 129    53  13.00  17.00  10.00 -99.000   2.536   1.683   0.855   4.048   3.193   0.855   0.000   0.000  152.80   94.46   21.73   72.73    0.00    0.00 -99.000 -99.000 -99.000   0.160   0.122   0.043   0.067   0.054   0.045   0.039   0.035   0.060   0.231   0.319   0.026
   15 130    54  22.00  19.00   7.00 -99.000   4.284   2.924   1.364   2.389   1.025   1.364   0.000   0.000  157.08   96.85   22.76   74.10    0.00    0.00 -99.000 -99.000 -99.000   0.251   0.190   0.067   0.106   0.085   0.072   0.063   0.056   0.098   0.376   0.103   0.028
   15 131    55  23.00  21.00   5.00 -99.000   4.500   3.149   1.355   3.856   2.501   1.355   0.000   0.000  161.58  100.71   25.26   75.45    0.00    0.00 -99.000 -99.000 -99.000   0.241   0.188   0.066   0.106   0.085   0.072   0.064   0.057   0.098   0.379   0.250   0.029
   15 132    56  23.00  27.00   8.00 -99.000   4.975   3.561   1.418   5.011   3.593   1.418   0.000   0.000  166.56  105.72   28.85   76.87    0.00    0.00 -99.000 -99.000 -99.000   0.236   0.195   0.069   0.111   0.090   0.076   0.068   0.061   0.105   0.407   0.359   0.031
   15 133    57  20.00  22.00  13.00 -99.000   4.216   3.104   1.115   6.555   5.440   1.115   0.000   0.000  170.77  112.27   34.29   77.98    0.00    0.00 -99.000 -99.000 -99.000   0.204   0.151   0.052   0.084   0.068   0.058   0.052   0.047   0.082   0.317   0.544   0.032
   15 134    58  18.00  18.00  11.00 -99.000   3.537   2.670   0.871   3.324   2.453   0.871   0.000   0.000  174.31  115.60   36.74   78.85    0.00    0.00 -99.000 -99.000 -99.000   0.166   0.116   0.038   0.063   0.052   0.045   0.040   0.037   0.064   0.249   0.245   0.034
   15 135    59   8.00  15.00   7.00 -99.000   1.446   1.111   0.336   1.786   1.450   0.336   0.000   0.000  175.76  117.38   38.19   79.19    0.00    0.00 -99.000 -99.000 -99.000   0.061   0.045   0.015   0.025   0.020   0.017   0.016   0.015   0.025   0.098   0.145   0.036
   15 136    60  24.00  19.00   5.00 -99.000   4.495   3.521   0.979   1.637   0.659   0.979   0.000   0.000  180.25  119.02   38.85   80.17    0.00    0.00 -99.000 -99.000 -99.000   0.173   0.130   0.042   0.071   0.059   0.051   0.046   0.043   0.075   0.289   0.066   0.037
   15 137    61  17.00  17.00  10.00 -99.000   3.228   2.613   0.618   3.304   2.686   0.618   0.000   0.000  183.48  122.33   41.54   80.79    0.00    0.00 -99.000 -99.000 -99.000   0.513   0.063   0.010   0.011   0.006   0.004   0.003   0.002   0.003   0.005   0.269   0.038
   15 138    62  26.00  23.00   7.00 -99.000   5.197   4.286   0.916   1.876   0.960   0.916   0.000   0.000  188.68  124.20   42.50   81.70    0.00    0.00 -99.000 -99.000 -99.000   0.756   0.095   0.015   0.017   0.009   0.006   0.004   0.003   0.004   0.008   0.096   0.039
   15 139    63  10.00  18.00   9.00 -99.000   1.896   1.595   0.303   3.235   2.932   0.303   0.000   0.000  190.57  127.44   45.43   82.01    0.00    0.00 -99.000 -99.000 -99.000   0.061   0.043   0.014   0.021   0.017   0.015   0.013   0.013   0.022   0.085   0.293   0.040
   15 140    64   8.00  10.00   6.00 -99.000   1.310   1.112   0.200   0.894   0.694   0.200   0.000   0.000  191.88  128.33   46.12   82.21    0.00    0.00 -99.000 -99.000 -99.000   0.046   0.032   0.010   0.014   0.011   0.009   0.008   0.007   0.013   0.051   0.069   0.041
   15 141    65  12.00  12.00   7.00 -99.000   2.048   1.747   0.304   0.453   0.149   0.304   0.000   0.000  193.93  128.79   46.27   82.51    0.00    0.00 -99.000 -99.000 -99.000   0.063   0.048   0.018   0.025   0.018   0.014   0.012   0.011   0.020   0.077   0.015   0.041
   15 142    66  22.00  15.00   4.00 -99.000   3.805   3.269   0.541   0.830   0.289   0.541   0.000   0.000  197.73  129.62   46.56   83.05    0.00    0.00 -99.000 -99.000 -99.000   0.104   0.080   0.029   0.043   0.033   0.027   0.023   0.021   0.037   0.143   0.029   0.041
   15 143    67  15.00  16.00   6.00 -99.000   2.679   2.325   0.358   1.326   0.967   0.358   0.000   0.000  200.41  130.94   47.53   83.41    0.00    0.00 -99.000 -99.000 -99.000   0.071   0.052   0.019   0.028   0.022   0.018   0.016   0.014   0.024   0.094   0.097   0.041
   15 144    68  12.00  15.00   8.00 -99.000   2.153   1.880   0.275   0.995   0.720   0.275   0.000   0.000  202.57  131.94   48.25   83.69    0.00    0.00 -99.000 -99.000 -99.000   0.054   0.039   0.015   0.022   0.017   0.014   0.012   0.011   0.019   0.072   0.072   0.042
   15 145    69  15.00  19.00   9.00 -99.000   2.870   2.520   0.354   0.782   0.428   0.354   0.000   0.000  205.44  132.72   48.68   84.04    0.00    0.00 -99.000 -99.000 -99.000   0.066   0.050   0.018   0.028   0.022   0.019   0.016   0.014   0.025   0.096   0.043   0.042
   15 146    70  13.00  15.00   8.00 -99.000   2.326   2.055   0.274   1.133   0.859   0.274   0.000   0.000  207.76  133.85   49.54   84.32    0.00    0.00 -99.000 -99.000 -99.000   0.050   0.038   0.014   0.021   0.017   0.014   0.013   0.011   0.020   0.076   0.086   0.042
   15 147    71  17.00  14.00   4.00 -99.000   2.877   2.554   0.327   0.758   0.431   0.327   0.000   0.000  210.64  134.61   49.97   84.64    0.00    0.00 -99.000 -99.000 -99.000   0.059   0.046   0.016   0.026   0.021   0.017   0.015   0.014   0.023   0.091   0.043   0.043
   15 148    72  27.00  20.00   3.00 -99.000   4.942   4.398   0.550   1.130   0.580   0.550   0.000   0.000  215.58  135.74   50.55   85.19    0.00    0.00 -99.000 -99.000 -99.000   0.098   0.077   0.027   0.043   0.035   0.029   0.026   0.023   0.040   0.154   0.058   0.043
   15 149    73  21.00  23.00   7.00 -99.000   4.149   3.711   0.443   2.117   1.674   0.443   0.000   0.000  219.73  137.86   52.22   85.64    0.00    0.00 -99.000 -99.000 -99.000   0.078   0.062   0.022   0.035   0.028   0.024   0.021   0.019   0.032   0.125   0.167   0.043
   15 150    74  17.00  18.00  11.00 -99.000   3.254   2.920   0.338   1.877   1.539   0.338   0.000   0.000  222.98  139.73   53.76   85.97    0.00    0.00 -99.000 -99.000 -99.000   0.058   0.047   0.016   0.026   0.021   0.018   0.016   0.014   0.025   0.096   0.154   0.044
   15 151    75  22.00  21.00   9.00 -99.000   4.304   3.871   0.438   0.977   0.539   0.438   0.000   0.000  227.29  140.71   54.30   86.41    0.00    0.00 -99.000 -99.000 -99.000   0.073   0.060   0.021   0.034   0.028   0.024   0.021   0.019   0.032   0.126   0.054   0.044
   15 152    76  21.00  26.00  11.00 -99.000   4.451   4.016   0.440   1.583   1.142   0.440   0.000   0.000  231.74  142.29   55.44   86.85    0.00    0.00 -99.000 -99.000 -99.000   0.356   0.050   0.009   0.009   0.005   0.003   0.002   0.001   0.002   0.004   0.114   0.044
   15 153    77  23.00  25.00  13.00 -99.000   4.892   4.426   0.472   2.096   1.625   0.472   0.000   0.000  236.63  144.39   57.07   87.32    0.00    0.00 -99.000 -99.000 -99.000   0.378   0.056   0.010   0.010   0.005   0.003   0.002   0.002   0.002   0.004   0.162   0.045
   15 154    78  27.00  28.00  12.00 -99.000   5.901   5.364   0.543   2.731   2.188   0.543   0.000   0.000  242.53  147.12   59.25   87.87    0.00    0.00 -99.000 -99.000 -99.000   0.429   0.067   0.012   0.012   0.006   0.004   0.003   0.002   0.003   0.005   0.219   0.045
   15 155    79  28.00  26.00  12.00 -99.000   5.967   5.460   0.513   4.831   4.318   0.513   0.000   0.000  248.50  151.95   63.57   88.38    0.00    0.00 -99.000 -99.000 -99.000   0.399   0.067   0.012   0.012   0.006   0.004   0.003   0.002   0.003   0.005   0.432   0.046
   15 156    80  28.00  28.00  15.00 -99.000   6.255   5.723   0.539   5.033   4.494   0.539   0.000   0.000  254.75  156.98   68.07   88.92    0.00    0.00 -99.000 -99.000 -99.000   0.409   0.075   0.013   0.014   0.007   0.005   0.003   0.002   0.003   0.006   0.449   0.040
   15 157    81  25.00  30.00  13.00 -99.000   5.625   5.155   0.476   5.061   4.586   0.476   0.000   0.000  260.38  162.04   72.65   89.39    0.00    0.00 -99.000 -99.000 -99.000   0.373   0.059   0.010   0.011   0.006   0.004   0.003   0.002   0.003   0.005   0.459   0.038
   15 158    82  24.00  26.00  16.00 -99.000   5.279   4.843   0.441   5.709   5.268   0.441   0.000   0.000  265.66  167.75   77.92   89.83    0.00    0.00 -99.000 -99.000 -99.000   0.358   0.048   0.008   0.009   0.005   0.003   0.002   0.002   0.002   0.004   0.527   0.049
   15 159    83   8.00  20.00  12.00 -99.000   1.579   1.454   0.127   3.795   3.668   0.127   0.000   0.000  267.24  171.55   81.59   89.96    0.00    0.00 -99.000 -99.000 -99.000   0.025   0.017   0.005   0.008   0.007   0.006   0.006   0.005   0.009   0.038   0.367   0.049
   15 160    84   6.00  13.00  11.00 -99.000   1.068   0.984   0.085   1.332   1.247   0.085   0.000   0.000  268.30  172.88   82.83   90.05    0.00    0.00 -99.000 -99.000 -99.000   0.018   0.012   0.004   0.005   0.004   0.004   0.004   0.003   0.006   0.024   0.125   0.052
   15 161    85   9.00  18.00  11.00 -99.000   1.718   1.579   0.141   0.338   0.197   0.141   0.000   0.000  270.02  173.22   83.03   90.19    0.00    0.00 -99.000 -99.000 -99.000   0.028   0.021   0.007   0.009   0.007   0.006   0.006   0.005   0.010   0.041   0.020   0.052
   15 162    86  16.00  22.00  14.00 -99.000   3.302   3.030   0.275   1.468   1.192   0.275   0.000   0.000  273.32  174.69   84.22   90.46    0.00    0.00 -99.000 -99.000 -99.000   0.053   0.040   0.014   0.018   0.014   0.013   0.012   0.011   0.020   0.080   0.119   0.052
   15 163    87  28.00  28.00  12.00 -99.000   6.117   5.604   0.519   2.928   2.409   0.519   0.000   0.000  279.44  177.61   86.63   90.98    0.00    0.00 -99.000 -99.000 -99.000   0.099   0.076   0.026   0.035   0.027   0.024   0.022   0.020   0.038   0.152   0.241   0.053
   15 164    88  20.00  25.00  14.00 -99.000   4.283   3.917   0.371   7.559   7.188   0.371   0.000   0.000  283.72  185.17   93.82   91.35    0.00    0.00 -99.000 -99.000 -99.000   0.080   0.054   0.018   0.024   0.018   0.016   0.015   0.014   0.026   0.105   0.719   0.053
   15 165    89  23.00  24.00  15.00 -99.000   4.913   4.484   0.434   4.462   4.028   0.434   0.000   0.000  288.64  189.64   97.85   91.79    0.00    0.00 -99.000 -99.000 -99.000   0.100   0.069   0.023   0.029   0.020   0.017   0.016   0.015   0.029   0.116   0.403   0.054
   15 166    90   9.00  16.00  13.00 -99.000   1.705   1.554   0.154   3.762   3.608   0.154   0.000   0.000  290.34  193.40  101.46   91.94    0.00    0.00 -99.000 -99.000 -99.000   0.034   0.026   0.009   0.013   0.008   0.006   0.005   0.005   0.009   0.039   0.361   0.055
   15 167    91  18.00  19.00  11.00 -99.000   3.490   3.174   0.320   0.827   0.508   0.320   0.000   0.000  293.83  194.22  101.96   92.26    0.00    0.00 -99.000 -99.000 -99.000   0.064   0.049   0.017   0.027   0.020   0.015   0.013   0.012   0.021   0.084   0.051   0.056
   15 168    92  21.00  19.00  10.00 -99.000   4.034   3.663   0.376   2.566   2.190   0.376   0.000   0.000  297.87  196.79  104.15   92.64    0.00    0.00 -99.000 -99.000 -99.000   0.070   0.055   0.019   0.030   0.023   0.019   0.017   0.015   0.025   0.101   0.219   0.056
   15 169    93   8.00  17.00   9.00 -99.000   1.481   1.343   0.140   2.785   2.645   0.140   0.000   0.000  299.35  199.58  106.80   92.78    0.00    0.00 -99.000 -99.000 -99.000   0.029   0.021   0.007   0.011   0.008   0.007   0.006   0.005   0.009   0.037   0.264   0.056
   15 170    94  15.00  15.00  10.00 -99.000   2.729   2.471   0.262   1.410   1.148   0.262   0.000   0.000  302.08  200.98  107.95   93.04    0.00    0.00 -99.000 -99.000 -99.000   0.053   0.038   0.013   0.020   0.016   0.013   0.012   0.010   0.018   0.069   0.115   0.057
   15 171    95  14.00  15.00   9.00 -99.000   2.521   2.279   0.245   1.248   1.003   0.245   0.000   0.000  304.60  202.23  108.95   93.28    0.00    0.00 -99.000 -99.000 -99.000   0.046   0.035   0.012   0.019   0.015   0.013   0.011   0.010   0.017   0.067   0.100   0.057
   15 172    96  14.00  17.00   9.00 -99.000   2.594   2.341   0.255   1.373   1.117   0.255   0.000   0.000  307.19  203.61  110.07   93.54    0.00    0.00 -99.000 -99.000 -99.000   0.047   0.036   0.012   0.020   0.016   0.013   0.012   0.011   0.018   0.071   0.112   0.058
   15 173    97  14.00  20.00  11.00 -99.000   2.751   2.480   0.275   1.903   1.629   0.275   0.000   0.000  309.94  205.51  111.70   93.81    0.00    0.00 -99.000 -99.000 -99.000   0.057   0.039   0.014   0.021   0.016   0.014   0.012   0.011   0.019   0.073   0.163   0.058
   15 174    98  19.00  16.00   9.00 -99.000   3.477   3.129   0.352   2.516   2.164   0.352   0.000   0.000  313.42  208.03  113.86   94.17    0.00    0.00 -99.000 -99.000 -99.000   0.077   0.051   0.018   0.026   0.021   0.017   0.015   0.013   0.023   0.090   0.216   0.059
   15 175    99  22.00  19.00   8.00 -99.000   4.158   3.737   0.426   2.083   1.656   0.426   0.000   0.000  317.58  210.11  115.52   94.59    0.00    0.00 -99.000 -99.000 -99.000   0.084   0.061   0.022   0.033   0.026   0.022   0.019   0.017   0.029   0.115   0.166   0.059
   15 176   100  22.00  21.00   6.00 -99.000   4.195   3.764   0.436   3.569   3.134   0.436   0.000   0.000  321.77  213.68  118.65   95.03    0.00    0.00 -99.000 -99.000 -99.000   0.081   0.061   0.022   0.034   0.027   0.023   0.020   0.018   0.031   0.120   0.313   0.059
   15 177   101  24.00  24.00   8.00 -99.000   4.844   4.347   0.503   4.608   4.105   0.503   0.000   0.000  326.62  218.29  122.76   95.53    0.00    0.00 -99.000 -99.000 -99.000   0.090   0.070   0.025   0.039   0.031   0.026   0.023   0.021   0.036   0.141   0.410   0.060
   15 178   102  13.00  22.00  13.00 -99.000   2.669   2.389   0.284   5.875   5.591   0.284   0.000   0.000  329.29  224.16  128.35   95.81    0.00    0.00 -99.000 -99.000 -99.000   0.231   0.032   0.005   0.006   0.003   0.002   0.001   0.001   0.001   0.002   0.559   0.060
   15 179   103  24.00  22.00  13.00 -99.000   4.928   4.395   0.538   2.822   2.284   0.538   0.000   0.000  334.21  226.98  130.63   96.35    0.00    0.00 -99.000 -99.000 -99.000   0.431   0.063   0.011   0.011   0.006   0.004   0.003   0.002   0.002   0.005   0.228   0.060
   15 180   104  23.00  25.00  12.00 -99.000   4.863   4.322   0.547   3.924   3.378   0.547   0.000   0.000  339.08  230.91  134.01   96.90    0.00    0.00 -99.000 -99.000 -99.000   0.432   0.068   0.012   0.012   0.006   0.004   0.003   0.002   0.003   0.005   0.338   0.060
   15 181   105  27.00  29.00  12.00 -99.000   5.991   5.303   0.694   5.597   4.903   0.694   0.000   0.000  345.07  236.50  138.91   97.59    0.00    0.00 -99.000 -99.000 -99.000   0.538   0.092   0.016   0.016   0.009   0.005   0.004   0.003   0.004   0.007   0.490   0.060
   15 182   106  28.00  28.00  13.00 -99.000   6.189   5.456   0.739   8.009   7.312   0.697   0.000   0.000  351.26  244.51  146.22   98.29    0.00    0.00 -99.000 -99.000 -99.000   0.526   0.100   0.017   0.018   0.010   0.006   0.004   0.003   0.004   0.008   0.731   0.051
   15 183   107  29.00  29.00  14.00 -99.000   6.537   5.735   0.808   7.244   6.644   0.600   0.000   0.000  357.80  251.76  152.87   98.89    0.00    0.00 -99.000 -99.000 -99.000   0.438   0.094   0.016   0.017   0.009   0.006   0.004   0.003   0.004   0.008   0.664   0.049
   15 184   108  23.00  31.00  14.00 -99.000   5.306   4.632   0.679   7.390   6.859   0.531   0.000   0.000  363.10  259.15  159.72   99.42    0.00    0.00 -99.000 -99.000 -99.000   0.378   0.088   0.015   0.016   0.009   0.006   0.004   0.003   0.004   0.008   0.686   0.049
   15 185   109  27.00  32.00  16.00 -99.000   6.395   5.553   0.848   7.074   6.594   0.480   0.000   0.000  369.50  266.22  166.32   99.90    0.00    0.00 -99.000 -99.000 -99.000   0.335   0.083   0.014   0.015   0.008   0.005   0.004   0.003   0.004   0.008   0.659   0.048
   15 186   110  27.00  33.00  17.00 -99.000   6.516   5.626   0.896   7.264   6.822   0.442   0.000   0.000  376.01  273.48  173.14  100.34    0.00    0.00 -99.000 -99.000 -99.000   0.305   0.078   0.012   0.015   0.008   0.005   0.004   0.003   0.004   0.008   0.682   0.041
   15 187   111  23.00  28.00  17.00 -99.000   5.254   4.508   0.751   6.436   6.029   0.407   0.000   0.000  381.27  279.92  179.17  100.75    0.00    0.00 -99.000 -99.000 -99.000   0.278   0.074   0.011   0.014   0.007   0.005   0.004   0.003   0.004   0.008   0.603   0.031
   15 188   112  26.00  33.00  16.00 -99.000   6.232   5.347   0.891   4.634   4.078   0.556   0.000   0.000  387.50  284.55  183.25  101.31    0.00    0.00 -99.000 -99.000 -99.000   0.432   0.070   0.010   0.013   0.007   0.005   0.003   0.003   0.004   0.008   0.408   0.025
   15 189   113  16.00  21.00  13.00 -99.000   3.259   2.795   0.468   6.823   6.355   0.468   0.000   0.000  390.76  291.38  189.60  101.77    0.00    0.00 -99.000 -99.000 -99.000   0.405   0.036   0.005   0.006   0.003   0.002   0.002   0.001   0.002   0.004   0.636   0.028
   15 190   114  17.00  19.00   8.00 -99.000   3.234   2.770   0.467   2.521   2.053   0.467   0.000   0.000  393.99  293.90  191.66  102.24    0.00    0.00 -99.000 -99.000 -99.000   0.106   0.048   0.013   0.027   0.022   0.020   0.019   0.018   0.036   0.158   0.205   0.030
   15 191   115  29.00  22.00   7.00 -99.000   5.692   4.870   0.829   3.294   2.465   0.829   0.000   0.000  399.68  297.19  194.12  103.07    0.00    0.00 -99.000 -99.000 -99.000   0.730   0.058   0.008   0.010   0.005   0.003   0.003   0.002   0.003   0.007   0.246   0.028
   15 192   116  26.00  28.00   8.00 -99.000   5.554   4.744   0.815   5.940   5.125   0.815   0.000   0.000  405.24  303.13  199.25  103.89    0.00    0.00 -99.000 -99.000 -99.000   0.706   0.064   0.009   0.011   0.006   0.004   0.003   0.002   0.003   0.008   0.513   0.027
   15 193   117  24.00  27.00  13.00 -99.000   5.269   4.493   0.781   8.109   7.397   0.712   0.000   0.000  410.51  311.24  206.64  104.60    0.00    0.00 -99.000 -99.000 -99.000   0.599   0.065   0.009   0.012   0.006   0.004   0.003   0.002   0.004   0.008   0.740   0.024
   15 194   118  10.00  21.00  15.00 -99.000   2.072   1.763   0.311   5.550   5.239   0.311   0.000   0.000  412.58  316.79  211.88  104.91    0.00    0.00 -99.000 -99.000 -99.000   0.256   0.032   0.004   0.006   0.003   0.002   0.001   0.001   0.002   0.004   0.524   0.012
   15 195   119  16.00  25.00  15.00 -99.000   3.485   2.955   0.533   1.744   1.211   0.533   0.000   0.000  416.06  318.53  213.09  105.44    0.00    0.00 -99.000 -99.000 -99.000   0.439   0.054   0.008   0.010   0.005   0.003   0.002   0.002   0.003   0.007   0.121   0.012
   15 196   120  23.00  27.00  16.00 -99.000   5.170   4.369   0.805   3.402   2.868   0.534   0.000   0.000  421.23  321.94  215.96  105.98    0.00    0.00 -99.000 -99.000 -99.000   0.432   0.058   0.008   0.011   0.006   0.004   0.003   0.002   0.003   0.008   0.287   0.011
   15 197   121  26.00  31.00  13.00 -99.000   5.981   5.033   0.954   4.501   4.026   0.475   0.000   0.000  427.21  326.44  219.99  106.45    0.00    0.00 -99.000 -99.000 -99.000   0.375   0.057   0.008   0.010   0.006   0.004   0.003   0.002   0.003   0.008   0.403   0.010
   15 198   122  23.00  33.00  15.00 -99.000   5.493   4.597   0.901   7.080   6.651   0.428   0.000   0.000  432.71  333.52  226.64  106.88    0.00    0.00 -99.000 -99.000 -99.000   0.330   0.055   0.008   0.010   0.005   0.003   0.002   0.002   0.003   0.008   0.665   0.010
   15 199   123  16.00  29.00  14.00 -99.000   3.628   3.017   0.614   6.321   5.927   0.394   0.000   0.000  436.34  339.84  232.57  107.27    0.00    0.00 -99.000 -99.000 -99.000   0.301   0.052   0.008   0.010   0.005   0.003   0.002   0.002   0.003   0.008   0.593   0.008
   15 200   124  16.00  28.00  16.00 -99.000   3.645   3.008   0.640   4.376   4.011   0.365   0.000   0.000  439.98  344.22  236.58  107.64    0.00    0.00 -99.000 -99.000 -99.000   0.274   0.051   0.008   0.009   0.005   0.003   0.002   0.002   0.003   0.008   0.401   0.005
   15 201   125  19.00  28.00  18.00 -99.000   4.398   3.600   0.802   3.571   3.233   0.338   0.000   0.000  444.38  347.79  239.81  107.98    0.00    0.00 -99.000 -99.000 -99.000   0.249   0.049   0.008   0.009   0.005   0.003   0.002   0.002   0.003   0.008   0.323   0.004
   15 202   126  26.00  32.00  16.00 -99.000   6.206   5.031   1.179   3.329   3.014   0.315   0.000   0.000  450.58  351.12  242.82  108.29    0.00    0.00 -99.000 -99.000 -99.000   0.227   0.049   0.008   0.009   0.005   0.003   0.002   0.002   0.003   0.007   0.301   0.003
   15 203   127  25.00  34.00  15.00 -99.000   6.062   4.858   1.208   5.666   5.373   0.293   0.000   0.000  456.65  356.78  248.20  108.58    0.00    0.00 -99.000 -99.000 -99.000   0.206   0.048   0.008   0.009   0.005   0.003   0.002   0.002   0.003   0.007   0.537   0.002
   15 204   128  12.00  24.00  18.00 -99.000   2.661   2.105   0.558   5.619   5.301   0.318   0.000   0.000  459.31  362.40  253.50  108.90    0.00    0.00 -99.000 -99.000 -99.000   0.233   0.047   0.008   0.009   0.005   0.003   0.002   0.002   0.002   0.007   0.530   0.002
   15 205   129  21.00  29.00  14.00 -99.000   4.797   3.739   1.062   1.408   1.067   0.341   0.000   0.000  464.10  363.81  254.57  109.24    0.00    0.00 -99.000 -99.000 -99.000   0.257   0.047   0.008   0.009   0.005   0.003   0.002   0.001   0.002   0.007   0.107   0.001
   15 206   130  21.00  25.00  12.00 -99.000   4.509   3.460   1.053   3.848   3.531   0.318   0.000   0.000  468.61  367.66  258.10  109.56    0.00    0.00 -99.000 -99.000 -99.000   0.234   0.047   0.008   0.009   0.005   0.003   0.002   0.001   0.002   0.007   0.353   0.001
   15 207   131  26.00  23.00   8.00 -99.000   5.272   3.974   1.303   0.311   0.014   0.296   0.000   0.000  473.88  367.97  258.11  109.86    0.00    0.00 -99.000 -99.000 -99.000   0.213   0.046   0.008   0.009   0.005   0.003   0.002   0.001   0.002   0.007   0.001   0.001
   15 208   132  19.00  23.00  12.00 -99.000   3.993   2.957   1.040   0.424   0.013   0.411   0.000   0.000  477.88  368.39  258.12  110.27    0.00    0.00 -99.000 -99.000 -99.000   0.328   0.046   0.008   0.009   0.005   0.003   0.002   0.001   0.002   0.007   0.001   0.001
   15 209   133  17.00  22.00  12.00 -99.000   3.545   2.582   0.966   1.613   1.052   0.561   0.000   0.000  481.42  370.01  259.18  110.83    0.00    0.00 -99.000 -99.000 -99.000   0.478   0.046   0.008   0.009   0.005   0.003   0.002   0.001   0.002   0.007   0.105   0.002
   15 210   134  12.00  20.00   9.00 -99.000   2.379   1.697   0.684   1.035   0.522   0.513   0.000   0.000  483.80  371.04  259.70  111.34    0.00    0.00 -99.000 -99.000 -99.000   0.431   0.046   0.008   0.009   0.005   0.003   0.002   0.001   0.002   0.007   0.052   0.001
   15 211   135  21.00  21.00   7.00 -99.000   4.155   2.899   1.260   1.042   0.569   0.472   0.000   0.000  487.96  372.08  260.27  111.81    0.00    0.00 -99.000 -99.000 -99.000   0.390   0.045   0.008   0.009   0.005   0.003   0.002   0.001   0.002   0.007   0.057   0.001
   15 212   136  25.00  23.00   9.00 -99.000   5.174   3.534   1.645   0.399   0.013   0.386   0.000   0.000  493.13  372.48  260.28  112.20    0.00    0.00 -99.000 -99.000 -99.000   0.304   0.045   0.008   0.009   0.005   0.003   0.002   0.001   0.002   0.007   0.001   0.001
   15 213   137  10.00  20.00  13.00 -99.000   2.065   1.379   0.688   0.372   0.013   0.358   0.000   0.000  495.20  372.85  260.29  112.56    0.00    0.00 -99.000 -99.000 -99.000   0.277   0.045   0.008   0.009   0.005   0.003   0.002   0.001   0.002   0.007   0.001   0.001
   15 214   138  19.00  25.00  12.00 -99.000   4.154   2.694   1.463   0.347   0.014   0.333   0.000   0.000  499.35  373.20  260.31  112.89    0.00    0.00 -99.000 -99.000 -99.000   0.252   0.045   0.008   0.009   0.005   0.003   0.002   0.001   0.002   0.007   0.001   0.001
   15 215   139  26.00  28.00  11.00 -99.000   5.864   3.678   2.191   0.324   0.014   0.310   0.000   0.000  505.21  373.52  260.32  113.20    0.00    0.00 -99.000 -99.000 -99.000   0.229   0.044   0.008   0.009   0.005   0.003   0.002   0.001   0.002   0.007   0.001   0.001
   15 216   140  21.00  31.00  12.00 -99.000   4.962   2.980   1.986   0.304   0.014   0.290   0.000   0.000  510.18  373.83  260.34  113.49    0.00    0.00 -99.000 -99.000 -99.000   0.209   0.044   0.008   0.009   0.005   0.003   0.002   0.001   0.002   0.007   0.001   0.001
   15 217   141  24.00  29.00  13.00 -99.000   5.608   3.194   2.418   0.285   0.015   0.271   0.000   0.000  515.78  374.11  260.35  113.76    0.00    0.00 -99.000 -99.000 -99.000   0.190   0.044   0.008   0.009   0.005   0.003   0.002   0.001   0.002   0.007   0.001   0.001
   15 218   142  25.00  33.00  13.00 -99.000   6.159   3.192   2.970   0.268   0.015   0.253   0.000   0.000  521.94  374.38  260.36  114.01    0.00    0.00 -99.000 -99.000 -99.000   0.173   0.044   0.008   0.009   0.005   0.003   0.002   0.001   0.002   0.007   0.001   0.001
   15 219   143  25.00  35.00  14.00 -99.000   6.380   3.031   3.352   0.253   0.015   0.237   0.000   0.000  528.32  374.63  260.38  114.25    0.00    0.00 -99.000 -99.000 -99.000   0.157   0.043   0.008   0.009   0.005   0.003   0.002   0.001   0.002   0.007   0.002   0.002
   15 220   144  22.00  34.00  15.00 -99.000   5.679   2.110   3.571   0.283   0.015   0.268   0.000   0.000  534.00  374.92  260.40  114.52    0.00    0.00 -99.000 -99.000 -99.000   0.188   0.043   0.008   0.009   0.005   0.003   0.002   0.001   0.002   0.007   0.002   0.002
   15 221   145  22.00  33.00  16.00 -99.000   5.826   1.126   4.701   0.311   0.015   0.296   0.000   0.000  539.83  375.23  260.41  114.82    0.00    0.00 -99.000 -99.000 -99.000   0.216   0.043   0.008   0.009   0.005   0.003   0.002   0.001   0.002   0.007   0.002   0.002
   15 222   146  18.00  30.00  17.00 -99.000   4.779   0.000   4.779   0.276   0.000   0.276   0.000   0.000  544.61  375.50  260.41  115.09    0.00    0.00 -99.000 -99.000 -99.000   0.197   0.043   0.008   0.009   0.005   0.003   0.002   0.001   0.002   0.007   0.000   0.000
   15 223   147  19.00  31.00  16.00 -99.000   5.060   0.000   5.060   0.258   0.000   0.258   0.000   0.000  549.67  375.76  260.41  115.35    0.00    0.00 -99.000 -99.000 -99.000   0.179   0.042   0.008   0.009   0.005   0.003   0.002   0.001   0.002   0.007   0.000   0.000
   15 224   148  21.00  33.00  14.00 -99.000   5.629   0.000   5.629   0.242   0.000   0.242   0.000   0.000  555.30  376.00  260.41  115.59    0.00    0.00 -99.000 -99.000 -99.000   0.163   0.042   0.008   0.009   0.005   0.003   0.002   0.001   0.002   0.007   0.000   0.000
   15 225   149  21.00  33.00  14.00 -99.000   5.625   0.000   5.625   0.227   0.000   0.227   0.000   0.000  560.92  376.23  260.41  115.82    0.00    0.00 -99.000 -99.000 -99.000   0.148   0.042   0.008   0.009   0.005   0.003   0.002   0.001   0.002   0.007   0.000   0.000
   15 226   150  19.00  32.00  17.00 -99.000   5.142   0.000   5.142   0.392   0.000   0.392   0.000   0.000  566.06  376.62  260.41  116.21    0.00    0.00 -99.000 -99.000 -99.000   0.314   0.042   0.008   0.009   0.005   0.003   0.002   0.001   0.002   0.007   0.000   0.000
   15 227   151  15.00  25.00  15.00 -99.000   3.749   0.000   3.749   0.543   0.000   0.543   0.000   0.000  569.81  377.16  260.41  116.75    0.00    0.00 -99.000 -99.000 -99.000   0.466   0.041   0.008   0.009   0.005   0.003   0.002   0.001   0.002   0.007   0.000   0.000
   15 228   152   6.00  18.00  14.00 -99.000   1.359   0.000   1.359   0.760   0.000   0.760   0.000   0.000  571.17  377.92  260.41  117.51    0.00    0.00 -99.000 -99.000 -99.000   0.682   0.042   0.008   0.009   0.005   0.003   0.002   0.001   0.002   0.007   0.000   0.000
   15 229   153   6.00  15.00  12.00 -99.000   1.309   0.000   1.309   1.309   0.000   1.309   0.000   0.000  572.48  379.23  260.41  118.82    0.00    0.00 -99.000 -99.000 -99.000   0.381   0.108   0.036   0.063   0.052   0.045   0.041   0.036   0.068   0.478   0.000   0.000
   15 230   154  17.00  21.00  11.00 -99.000   4.017   0.000   4.017   4.017   0.000   4.017   0.000   0.000  576.50  383.25  260.41  122.84    0.00    0.00 -99.000 -99.000 -99.000   1.158   0.373   0.109   0.190   0.158   0.137   0.124   0.110   0.207   1.451   0.000   0.000
   15 231   155  10.00  20.00  13.00 -99.000   2.354   0.000   2.354   0.970   0.000   0.970   0.000   0.000  578.85  384.22  260.41  123.81    0.00    0.00 -99.000 -99.000 -99.000   0.881   0.053   0.007   0.008   0.005   0.003   0.002   0.001   0.002   0.007   0.000   0.000
   15 232   156  11.00  20.00  12.00 -99.000   2.558   0.000   2.558   0.891   0.000   0.891   0.000   0.000  581.41  385.11  260.41  124.70    0.00    0.00 -99.000 -99.000 -99.000   0.802   0.053   0.007   0.008   0.005   0.003   0.002   0.001   0.002   0.007   0.000   0.000
   15 233   157  16.00  21.00   9.00 -99.000   3.660   0.000   3.660   0.818   0.000   0.818   0.000   0.000  585.07  385.93  260.41  125.52    0.00    0.00 -99.000 -99.000 -99.000   0.730   0.053   0.007   0.008   0.005   0.003   0.002   0.001   0.002   0.007   0.000   0.000
   15 234   158  21.00  24.00   8.00 -99.000   4.937   0.000   4.937   0.753   0.000   0.753   0.000   0.000  590.01  386.68  260.41  126.27    0.00    0.00 -99.000 -99.000 -99.000   0.665   0.053   0.007   0.008   0.005   0.003   0.002   0.001   0.002   0.007   0.000   0.000
   15 235   159  20.00  27.00  11.00 -99.000   4.991   0.000   4.991   0.782   0.000   0.782   0.000   0.000  595.00  387.46  260.41  127.05    0.00    0.00 -99.000 -99.000 -99.000   0.695   0.052   0.007   0.008   0.005   0.003   0.002   0.001   0.002   0.007   0.000   0.000
   15 236   160  16.00  28.00  14.00 -99.000   4.160   0.000   4.160   4.160   0.000   4.160   0.000   0.000  599.16  391.63  260.41  131.21    0.00    0.00 -99.000 -99.000 -99.000   1.150   0.609   0.118   0.180   0.150   0.131   0.118   0.106   0.199   1.399   0.000   0.000
   15 237   161  20.00  21.00   8.00 -99.000   4.631   0.000   4.631   4.631   0.000   4.631   0.000   0.000  603.79  396.26  260.41  135.85    0.00    0.00 -99.000 -99.000 -99.000   1.338   0.863   0.152   0.177   0.149   0.130   0.118   0.105   0.199   1.400   0.000   0.000

*DSSAT Cropping System Model Ver. 4.8.5.000 -release  FEB 02, 2026 11:46:55

*RUN   2        : 2                         WHAPS048 TUDU1501    2
 MODEL          : WHAPS048 - Wheat
 EXPERIMENT     : TUDU1501 WH
 DATA PATH      :
 TREATMENT  2   : 2                         WHAPS048
  
!                                                                                                                                                                                        Soil evaporation (mm/d) by soil depth (cm):
!                                                                                                                                                                                        0-5    5-15   15-20   20-30   30-40   40-50   50-60   60-70   70-90  90-210
@YEAR DOY   DAS   SRAA  TMAXA  TMINA    REFA    EOAA    EOPA    EOSA    ETAA    EPAA    ESAA    EFAA    EMAA    EOAC    ETAC    EPAC    ESAC    EFAC    EMAC    KCAA    KBSA    KEAA    ES1D    ES2D    ES3D    ES4D    ES5D    ES6D    ES7D    ES8D    ES9D  ES10D   TRWUD   TWUPD
   15 077     1  16.00  14.00   0.00 -99.000   3.046   0.000   3.046   3.046   0.000   3.046   0.000   0.000    3.05    3.05    0.00    3.05    0.00    0.00 -99.000 -99.000 -99.000   0.530   0.419   0.151   0.232   0.200   0.167   0.144   0.127   0.221   0.856   0.000   0.000
   15 078     2  17.00  13.00  -1.00 -99.000   3.153   0.000   3.153   3.153   0.000   3.153   0.000   0.000    6.20    6.20    0.00    6.20    0.00    0.00 -99.000 -99.000 -99.000   0.553   0.435   0.156   0.240   0.206   0.172   0.148   0.131   0.228   0.884   0.000   0.000
   15 079     3  17.00  13.00  -2.00 -99.000   3.111   0.000   3.111   1.087   0.000   1.087   0.000   0.000    9.31    7.29    0.00    7.29    0.00    0.00 -99.000 -99.000 -99.000   0.893   0.117   0.020   0.020   0.011   0.007   0.004   0.003   0.004   0.008   0.000   0.000
   15 080     4  13.00  14.00  -3.00 -99.000   2.383   0.000   2.383   1.092   0.000   1.092   0.000   0.000   11.69    8.38    0.00    8.38    0.00    0.00 -99.000 -99.000 -99.000   0.898   0.116   0.020   0.020   0.011   0.007   0.004   0.003   0.004   0.008   0.000   0.000
   15 081     5   5.00   5.00   2.00 -99.000   0.834   0.000   0.834   0.834   0.000   0.834   0.000   0.000   12.53    9.21    0.00    9.21    0.00    0.00 -99.000 -99.000 -99.000   0.686   0.088   0.015   0.015   0.008   0.005   0.003   0.002   0.003   0.006   0.000   0.000
   15 082     6   7.00   6.00   0.00 -99.000   1.157   0.000   1.157   1.020   0.000   1.020   0.000   0.000   13.68   10.23    0.00   10.23    0.00    0.00 -99.000 -99.000 -99.000   0.827   0.115   0.020   0.020   0.011   0.007   0.004   0.003   0.004   0.008   0.000   0.000
   15 083     7  15.00  15.00  -2.00 -99.000   2.819   0.000   2.819   0.933   0.000   0.933   0.000   0.000   16.50   11.17    0.00   11.17    0.00    0.00 -99.000 -99.000 -99.000   0.741   0.114   0.020   0.020   0.011   0.007   0.004   0.003   0.004   0.008   0.000   0.000
   15 084     8  14.00  15.00   2.00 -99.000   2.735   0.000   2.735   0.856   0.000   0.856   0.000   0.000   19.24   12.02    0.00   12.02    0.00    0.00 -99.000 -99.000 -99.000   0.664   0.114   0.020   0.020   0.011   0.007   0.004   0.003   0.004   0.008   0.000   0.000
   15 085     9   3.00   7.00   4.00 -99.000   0.524   0.000   0.524   0.524   0.000   0.524   0.000   0.000   19.76   12.55    0.00   12.55    0.00    0.00 -99.000 -99.000 -99.000   0.397   0.075   0.013   0.013   0.007   0.004   0.003   0.002   0.003   0.006   0.000   0.000
   15 086    10  10.00   9.00   3.00 -99.000   1.784   0.000   1.784   0.796   0.000   0.796   0.000   0.000   21.54   13.34    0.00   13.34    0.00    0.00 -99.000 -99.000 -99.000   0.606   0.113   0.020   0.020   0.011   0.007   0.004   0.003   0.004   0.008   0.000   0.000
   15 087    11  17.00  11.00   1.00 -99.000   3.072   0.000   3.072   0.782   0.000   0.782   0.000   0.000   24.62   14.12    0.00   14.12    0.00    0.00 -99.000 -99.000 -99.000   0.593   0.112   0.020   0.020   0.011   0.007   0.004   0.003   0.004   0.008   0.000   0.000
   15 088    12   6.00  12.00   6.00 -99.000   1.159   0.000   1.159   0.720   0.000   0.720   0.000   0.000   25.78   14.84    0.00   14.84    0.00    0.00 -99.000 -99.000 -99.000   0.532   0.111   0.020   0.020   0.011   0.007   0.004   0.003   0.004   0.008   0.000   0.000
   15 089    13   9.00   9.00   3.00 -99.000   1.600   0.000   1.600   0.980   0.000   0.980   0.000   0.000   27.38   15.82    0.00   15.82    0.00    0.00 -99.000 -99.000 -99.000   0.789   0.113   0.020   0.020   0.011   0.007   0.004   0.003   0.004   0.008   0.000   0.000
   15 090    14   8.00  13.00   1.00 -99.000   1.517   0.019   1.499   1.517   0.019   1.499   0.000   0.000   28.89   17.34    0.02   17.32    0.00    0.00 -99.000 -99.000 -99.000   0.297   0.204   0.070   0.109   0.095   0.079   0.069   0.061   0.105   0.410   0.002   0.007
   15 091    15  13.00   6.00   0.00 -99.000   2.171   0.030   2.141   2.154   0.014   2.141   0.000   0.000   31.06   19.50    0.03   19.46    0.00    0.00 -99.000 -99.000 -99.000   0.450   0.302   0.100   0.151   0.131   0.110   0.095   0.084   0.147   0.571   0.001   0.007
   15 092    16   7.00   6.00   0.00 -99.000   1.171   0.018   1.154   1.159   0.005   1.154   0.000   0.000   32.24   20.65    0.04   20.62    0.00    0.00 -99.000 -99.000 -99.000   0.251   0.167   0.056   0.080   0.069   0.058   0.050   0.044   0.077   0.301   0.001   0.007
   15 093    17  20.00   9.00  -1.00 -99.000   3.504   0.056   3.448   3.452   0.004   3.448   0.000   0.000   35.74   24.11    0.04   24.06    0.00    0.00 -99.000 -99.000 -99.000   0.695   0.503   0.171   0.258   0.212   0.176   0.152   0.135   0.234   0.914   0.000   0.007
   15 094    18   7.00   5.00   1.00 -99.000   1.157   0.022   1.136   1.153   0.017   1.136   0.000   0.000   36.90   25.26    0.06   25.20    0.00    0.00 -99.000 -99.000 -99.000   0.232   0.165   0.057   0.088   0.070   0.057   0.049   0.044   0.076   0.298   0.002   0.007
   15 095    19  13.00   6.00  -2.00 -99.000   2.123   0.043   2.081   2.084   0.003   2.081   0.000   0.000   39.02   27.34    0.06   27.28    0.00    0.00 -99.000 -99.000 -99.000   0.409   0.302   0.104   0.163   0.130   0.108   0.093   0.081   0.141   0.551   0.000   0.007
   15 096    20  10.00   6.00  -2.00 -99.000   1.622   0.034   1.588   1.597   0.009   1.588   0.000   0.000   40.64   28.94    0.07   28.87    0.00    0.00 -99.000 -99.000 -99.000   0.294   0.231   0.079   0.126   0.101   0.085   0.073   0.063   0.109   0.426   0.001   0.007
   15 097    21  20.00   8.00  -2.00 -99.000   3.356   0.074   3.282   3.290   0.008   3.282   0.000   0.000   44.00   32.23    0.08   32.15    0.00    0.00 -99.000 -99.000 -99.000   0.596   0.477   0.164   0.261   0.209   0.178   0.153   0.130   0.227   0.888   0.001   0.007
   15 098    22  19.00  13.00   0.00 -99.000   3.545   0.086   3.459   1.128   0.021   1.107   0.000   0.000   47.54   33.36    0.10   33.26    0.00    0.00 -99.000 -99.000 -99.000   0.906   0.123   0.021   0.021   0.011   0.007   0.004   0.003   0.004   0.008   0.002   0.007
   15 099    23  20.00  18.00   2.00 -99.000   4.097   0.122   3.975   1.065   0.049   1.016   0.000   0.000   51.64   34.42    0.15   34.27    0.00    0.00 -99.000 -99.000 -99.000   0.815   0.122   0.020   0.021   0.011   0.007   0.004   0.003   0.004   0.008   0.005   0.007
   15 100    24  20.00  21.00   1.00 -99.000   4.217   0.158   4.060   1.040   0.109   0.932   0.000   0.000   55.86   35.46    0.26   35.21    0.00    0.00 -99.000 -99.000 -99.000   0.732   0.121   0.020   0.021   0.011   0.007   0.004   0.003   0.004   0.008   0.011   0.007
   15 101    25  13.00  18.00   5.00 -99.000   2.715   0.124   2.592   1.009   0.157   0.852   0.000   0.000   58.57   36.47    0.41   36.06    0.00    0.00 -99.000 -99.000 -99.000   0.653   0.120   0.020   0.021   0.011   0.007   0.004   0.003   0.004   0.008   0.016   0.007
   15 102    26  15.00  18.00   5.00 -99.000   3.119   0.169   2.950   0.892   0.113   0.779   0.000   0.000   61.69   37.36    0.53   36.84    0.00    0.00 -99.000 -99.000 -99.000   0.581   0.119   0.020   0.021   0.011   0.007   0.004   0.003   0.004   0.008   0.011   0.004
   15 103    27  15.00  18.00   5.00 -99.000   3.105   0.203   2.902   0.863   0.148   0.715   0.000   0.000   64.80   38.23    0.67   37.55    0.00    0.00 -99.000 -99.000 -99.000   0.519   0.118   0.020   0.021   0.011   0.007   0.004   0.003   0.004   0.008   0.015   0.002
   15 104    28  20.00  18.00   5.00 -99.000   4.122   0.324   3.798   0.836   0.178   0.657   0.000   0.000   68.92   39.06    0.85   38.21    0.00    0.00 -99.000 -99.000 -99.000   0.462   0.117   0.020   0.021   0.011   0.007   0.004   0.003   0.004   0.008   0.018   0.002
   15 105    29  23.00  23.00   5.00 -99.000   5.054   0.491   4.564   0.862   0.257   0.605   0.000   0.000   73.97   39.92    1.11   38.81    0.00    0.00 -99.000 -99.000 -99.000   0.412   0.115   0.020   0.021   0.011   0.007   0.004   0.003   0.004   0.008   0.026   0.002
   15 106    30  14.00  21.00   9.00 -99.000   3.088   0.368   2.721   1.092   0.533   0.559   0.000   0.000   77.06   41.02    1.64   39.37    0.00    0.00 -99.000 -99.000 -99.000   0.367   0.113   0.020   0.021   0.011   0.007   0.004   0.003   0.004   0.008   0.053   0.002
   15 107    31   8.00  16.00   5.00 -99.000   1.579   0.212   1.367   1.620   0.253   1.367   0.000   0.000   78.64   42.64    1.90   40.74    0.00    0.00 -99.000 -99.000 -99.000   0.219   0.212   0.075   0.111   0.088   0.075   0.064   0.054   0.095   0.373   0.025   0.002
   15 108    32  18.00  10.00   0.00 -99.000   3.175   0.456   2.720   2.833   0.114   2.720   0.000   0.000   81.81   45.47    2.01   43.46    0.00    0.00 -99.000 -99.000 -99.000   0.552   0.413   0.141   0.209   0.166   0.139   0.121   0.105   0.182   0.692   0.011   0.008
   15 109    33  24.00  12.00   0.00 -99.000   4.332   0.659   3.674   3.844   0.170   3.674   0.000   0.000   86.15   49.31    2.18   47.13    0.00    0.00 -99.000 -99.000 -99.000   0.688   0.541   0.186   0.288   0.229   0.194   0.171   0.152   0.261   0.963   0.017   0.008
   15 110    34  24.00  16.00   0.00 -99.000   4.586   0.753   3.834   4.138   0.304   3.834   0.000   0.000   90.73   53.45    2.48   50.97    0.00    0.00 -99.000 -99.000 -99.000   0.678   0.558   0.193   0.305   0.243   0.206   0.182   0.162   0.279   1.027   0.030   0.008
   15 111    35  25.00  19.00   1.00 -99.000   5.015   0.924   4.092   1.611   0.572   1.039   0.000   0.000   95.75   55.06    3.05   52.01    0.00    0.00 -99.000 -99.000 -99.000   0.839   0.121   0.021   0.021   0.011   0.007   0.005   0.003   0.004   0.008   0.057   0.008
   15 112    36  24.00  19.00   2.00 -99.000   4.818   1.029   3.790   1.825   0.896   0.928   0.000   0.000  100.56   56.89    3.95   52.94    0.00    0.00 -99.000 -99.000 -99.000   0.730   0.119   0.020   0.021   0.011   0.007   0.005   0.003   0.004   0.008   0.090   0.009
   15 113    37  15.00  12.00   0.00 -99.000   2.622   0.641   1.982   1.804   0.985   0.818   0.000   0.000  103.19   58.69    4.94   53.75    0.00    0.00 -99.000 -99.000 -99.000   0.623   0.116   0.020   0.021   0.011   0.007   0.005   0.003   0.004   0.008   0.099   0.010
   15 114    38  24.00  18.00   0.00 -99.000   4.588   1.177   3.414   1.090   0.365   0.725   0.000   0.000  107.77   59.78    5.30   54.48    0.00    0.00 -99.000 -99.000 -99.000   0.533   0.113   0.020   0.021   0.011   0.007   0.005   0.003   0.004   0.008   0.037   0.006
   15 115    39  12.00  19.00   3.00 -99.000   2.384   0.669   1.715   1.838   1.126   0.712   0.000   0.000  110.16   61.62    6.43   55.19    0.00    0.00 -99.000 -99.000 -99.000   0.523   0.111   0.020   0.020   0.011   0.007   0.005   0.003   0.004   0.008   0.113   0.005
   15 116    40  19.00  20.00  10.00 -99.000   4.065   1.270   2.796   1.549   0.814   0.735   0.000   0.000  114.22   63.17    7.24   55.93    0.00    0.00 -99.000 -99.000 -99.000   0.550   0.107   0.020   0.020   0.011   0.007   0.005   0.003   0.004   0.008   0.081   0.006
   15 117    41  21.00  22.00   6.00 -99.000   4.425   1.572   2.855   1.891   0.956   0.935   0.000   0.000  118.65   65.06    8.20   56.86    0.00    0.00 -99.000 -99.000 -99.000   0.754   0.105   0.019   0.020   0.011   0.007   0.005   0.003   0.004   0.008   0.096   0.007
   15 118    42   8.00  12.00   4.00 -99.000   1.434   0.563   0.872   2.658   1.786   0.872   0.000   0.000  120.08   67.72    9.98   57.73    0.00    0.00 -99.000 -99.000 -99.000   0.177   0.112   0.040   0.066   0.055   0.047   0.041   0.037   0.063   0.234   0.179   0.014
   15 119    43  22.00  13.00   0.00 -99.000   3.852   1.585   2.270   2.582   0.312   2.270   0.000   0.000  123.93   70.30   10.30   60.00    0.00    0.00 -99.000 -99.000 -99.000   0.454   0.306   0.103   0.171   0.141   0.121   0.107   0.095   0.165   0.607   0.031   0.015
   15 120    44  16.00  15.00   5.00 -99.000   3.025   1.283   1.744   2.664   0.920   1.744   0.000   0.000  126.96   72.96   11.22   61.75    0.00    0.00 -99.000 -99.000 -99.000   0.338   0.242   0.078   0.131   0.109   0.093   0.082   0.074   0.127   0.469   0.092   0.016
   15 121    45   8.00   9.00   7.00 -99.000   1.399   0.630   0.770   1.582   0.813   0.770   0.000   0.000  128.36   74.54   12.03   62.52    0.00    0.00 -99.000 -99.000 -99.000   0.158   0.119   0.040   0.060   0.046   0.039   0.034   0.030   0.052   0.192   0.081   0.016
   15 122    46  12.00  13.00   7.00 -99.000   2.244   1.050   1.195   1.277   0.082   1.195   0.000   0.000  130.60   75.82   12.11   63.71    0.00    0.00 -99.000 -99.000 -99.000   0.244   0.188   0.071   0.100   0.074   0.060   0.051   0.045   0.077   0.285   0.008   0.018
   15 123    47   9.00  16.00  10.00 -99.000   1.796   0.886   0.911   1.343   0.432   0.911   0.000   0.000  132.40   77.16   12.54   64.62    0.00    0.00 -99.000 -99.000 -99.000   0.191   0.144   0.052   0.076   0.058   0.047   0.040   0.034   0.057   0.211   0.043   0.018
   15 124    48  16.00  20.00  14.00 -99.000   3.482   1.829   1.656   2.147   0.491   1.656   0.000   0.000  135.88   79.31   13.03   66.28    0.00    0.00 -99.000 -99.000 -99.000   0.328   0.251   0.087   0.134   0.105   0.087   0.075   0.065   0.111   0.413   0.049   0.020
   15 125    49  12.00  25.00  12.00 -99.000   2.701   1.524   1.179   2.151   0.972   1.179   0.000   0.000  138.58   81.46   14.00   67.46    0.00    0.00 -99.000 -99.000 -99.000   0.233   0.172   0.062   0.094   0.074   0.062   0.053   0.047   0.079   0.301   0.097   0.020
   15 126    50  14.00  14.00   8.00 -99.000   2.605   1.570   1.038   3.051   2.013   1.038   0.000   0.000  141.18   84.51   16.02   68.49    0.00    0.00 -99.000 -99.000 -99.000   0.213   0.158   0.056   0.086   0.066   0.054   0.046   0.040   0.067   0.252   0.201   0.022
   15 127    51  22.00  18.00   8.00 -99.000   4.328   2.694   1.638   2.316   0.678   1.638   0.000   0.000  145.51   86.83   16.70   70.13    0.00    0.00 -99.000 -99.000 -99.000   0.314   0.246   0.085   0.135   0.104   0.086   0.074   0.065   0.110   0.420   0.068   0.023
   15 128    52  23.00  22.00   8.00 -99.000   4.742   3.054   1.692   3.563   1.871   1.692   0.000   0.000  150.25   90.39   18.57   71.82    0.00    0.00 -99.000 -99.000 -99.000   0.308   0.245   0.085   0.136   0.107   0.089   0.078   0.069   0.118   0.457   0.187   0.025
   15 129    53  13.00  17.00  10.00 -99.000   2.534   1.692   0.845   4.054   3.210   0.845   0.000   0.000  152.79   94.45   21.78   72.67    0.00    0.00 -99.000 -99.000 -99.000   0.158   0.120   0.042   0.066   0.053   0.044   0.039   0.034   0.059   0.228   0.321   0.026
   15 130    54  22.00  19.00   7.00 -99.000   4.280   2.941   1.343   2.375   1.032   1.343   0.000   0.000  157.07   96.82   22.81   74.01    0.00    0.00 -99.000 -99.000 -99.000   0.248   0.188   0.065   0.104   0.084   0.071   0.062   0.056   0.096   0.370   0.103   0.028
   15 131    55  23.00  21.00   5.00 -99.000   4.496   3.168   1.332   3.850   2.518   1.332   0.000   0.000  161.56  100.67   25.33   75.34    0.00    0.00 -99.000 -99.000 -99.000   0.237   0.185   0.065   0.104   0.083   0.071   0.063   0.056   0.097   0.372   0.252   0.030
   15 132    56  23.00  27.00   8.00 -99.000   4.970   3.585   1.390   5.010   3.620   1.390   0.000   0.000  166.53  105.68   28.95   76.73    0.00    0.00 -99.000 -99.000 -99.000   0.232   0.191   0.067   0.109   0.088   0.075   0.066   0.060   0.103   0.398   0.362   0.031
   15 133    57  20.00  22.00  13.00 -99.000   4.212   3.127   1.089   6.573   5.484   1.089   0.000   0.000  170.75  112.25   34.43   77.82    0.00    0.00 -99.000 -99.000 -99.000   0.200   0.147   0.050   0.082   0.067   0.057   0.051   0.046   0.080   0.309   0.548   0.032
   15 134    58  18.00  18.00  11.00 -99.000   3.533   2.690   0.847   3.322   2.475   0.847   0.000   0.000  174.28  115.58   36.91   78.67    0.00    0.00 -99.000 -99.000 -99.000   0.162   0.113   0.037   0.062   0.050   0.044   0.039   0.036   0.063   0.242   0.247   0.035
   15 135    59   8.00  15.00   7.00 -99.000   1.444   1.120   0.326   1.861   1.535   0.326   0.000   0.000  175.72  117.44   38.44   79.00    0.00    0.00 -99.000 -99.000 -99.000   0.059   0.044   0.014   0.024   0.020   0.017   0.015   0.014   0.025   0.095   0.153   0.037
   15 136    60  24.00  19.00   5.00 -99.000   4.489   3.549   0.946   1.643   0.697   0.946   0.000   0.000  180.21  119.08   39.14   79.94    0.00    0.00 -99.000 -99.000 -99.000   0.167   0.126   0.041   0.069   0.057   0.049   0.044   0.041   0.072   0.279   0.070   0.038
   15 137    61  17.00  17.00  10.00 -99.000   3.224   2.635   0.593   3.443   2.850   0.593   0.000   0.000  183.44  122.52   41.99   80.53    0.00    0.00 -99.000 -99.000 -99.000   0.492   0.060   0.010   0.010   0.006   0.004   0.002   0.002   0.002   0.005   0.285   0.039
   15 138    62  26.00  23.00   7.00 -99.000   5.190   4.322   0.874   1.891   1.017   0.874   0.000   0.000  188.63  124.41   43.00   81.41    0.00    0.00 -99.000 -99.000 -99.000   0.721   0.090   0.014   0.016   0.009   0.005   0.004   0.003   0.004   0.008   0.102   0.040
   15 139    63  10.00  18.00   9.00 -99.000   1.893   1.608   0.287   3.386   3.099   0.287   0.000   0.000  190.52  127.80   46.10   81.70    0.00    0.00 -99.000 -99.000 -99.000   0.058   0.041   0.013   0.019   0.016   0.014   0.013   0.012   0.021   0.081   0.310   0.041
   15 140    64   8.00  10.00   6.00 -99.000   1.308   1.120   0.189   0.922   0.733   0.189   0.000   0.000  191.83  128.72   46.84   81.89    0.00    0.00 -99.000 -99.000 -99.000   0.043   0.030   0.010   0.013   0.010   0.008   0.007   0.007   0.012   0.048   0.073   0.042
   15 141    65  12.00  12.00   7.00 -99.000   2.045   1.761   0.287   0.444   0.157   0.287   0.000   0.000  193.87  129.17   46.99   82.17    0.00    0.00 -99.000 -99.000 -99.000   0.059   0.045   0.017   0.023   0.017   0.013   0.011   0.010   0.019   0.072   0.016   0.042
   15 142    66  22.00  15.00   4.00 -99.000   3.799   3.294   0.510   0.814   0.304   0.510   0.000   0.000  197.67  129.98   47.30   82.68    0.00    0.00 -99.000 -99.000 -99.000   0.098   0.076   0.027   0.041   0.031   0.025   0.022   0.020   0.035   0.135   0.030   0.042
   15 143    67  15.00  16.00   6.00 -99.000   2.676   2.342   0.337   1.354   1.017   0.337   0.000   0.000  200.35  131.33   48.31   83.02    0.00    0.00 -99.000 -99.000 -99.000   0.066   0.049   0.018   0.027   0.021   0.017   0.015   0.013   0.023   0.089   0.102   0.042
   15 144    68  12.00  15.00   8.00 -99.000   2.150   1.894   0.258   1.014   0.756   0.258   0.000   0.000  202.50  132.35   49.07   83.28    0.00    0.00 -99.000 -99.000 -99.000   0.051   0.037   0.014   0.020   0.016   0.013   0.012   0.010   0.018   0.068   0.076   0.043
   15 145    69  15.00  19.00   9.00 -99.000   2.866   2.539   0.331   0.780   0.449   0.331   0.000   0.000  205.36  133.13   49.52   83.61    0.00    0.00 -99.000 -99.000 -99.000   0.062   0.047   0.017   0.026   0.021   0.017   0.015   0.013   0.023   0.090   0.045   0.043
   15 146    70  13.00  15.00   8.00 -99.000   2.323   2.070   0.256   1.155   0.899   0.256   0.000   0.000  207.69  134.28   50.42   83.86    0.00    0.00 -99.000 -99.000 -99.000   0.047   0.036   0.013   0.020   0.016   0.014   0.012   0.011   0.018   0.071   0.090   0.043
   15 147    71  17.00  14.00   4.00 -99.000   2.873   2.572   0.305   0.756   0.451   0.305   0.000   0.000  210.56  135.04   50.87   84.17    0.00    0.00 -99.000 -99.000 -99.000   0.055   0.043   0.015   0.024   0.019   0.016   0.014   0.013   0.022   0.085   0.045   0.044
   15 148    72  27.00  20.00   3.00 -99.000   4.935   4.429   0.512   1.119   0.606   0.512   0.000   0.000  215.49  136.16   51.48   84.68    0.00    0.00 -99.000 -99.000 -99.000   0.091   0.072   0.025   0.040   0.032   0.027   0.024   0.021   0.037   0.143   0.061   0.044
   15 149    73  21.00  23.00   7.00 -99.000   4.144   3.738   0.411   2.159   1.748   0.411   0.000   0.000  219.64  138.32   53.22   85.09    0.00    0.00 -99.000 -99.000 -99.000   0.072   0.057   0.020   0.032   0.026   0.022   0.019   0.017   0.030   0.116   0.175   0.044
   15 150    74  17.00  18.00  11.00 -99.000   3.250   2.941   0.313   1.919   1.607   0.313   0.000   0.000  222.89  140.24   54.83   85.41    0.00    0.00 -99.000 -99.000 -99.000   0.053   0.043   0.015   0.025   0.020   0.017   0.015   0.013   0.023   0.089   0.161   0.045
   15 151    75  22.00  21.00   9.00 -99.000   4.299   3.899   0.405   0.968   0.562   0.405   0.000   0.000  227.19  141.20   55.39   85.81    0.00    0.00 -99.000 -99.000 -99.000   0.329   0.045   0.008   0.008   0.004   0.003   0.002   0.001   0.002   0.003   0.056   0.045
   15 152    76  21.00  26.00  11.00 -99.000   4.445   4.043   0.407   1.596   1.189   0.407   0.000   0.000  231.63  142.80   56.58   86.22    0.00    0.00 -99.000 -99.000 -99.000   0.327   0.047   0.008   0.008   0.004   0.003   0.002   0.001   0.002   0.004   0.119   0.045
   15 153    77  23.00  25.00  13.00 -99.000   4.886   4.456   0.435   2.124   1.688   0.435   0.000   0.000  236.52  144.92   58.27   86.65    0.00    0.00 -99.000 -99.000 -99.000   0.347   0.052   0.009   0.009   0.005   0.003   0.002   0.002   0.002   0.004   0.169   0.046
   15 154    78  27.00  28.00  12.00 -99.000   5.894   5.399   0.500   2.727   2.226   0.500   0.000   0.000  242.41  147.65   60.50   87.15    0.00    0.00 -99.000 -99.000 -99.000   0.394   0.063   0.011   0.011   0.006   0.004   0.003   0.002   0.002   0.005   0.223   0.046
   15 155    79  28.00  26.00  12.00 -99.000   5.960   5.494   0.473   4.828   4.355   0.473   0.000   0.000  248.37  152.48   64.85   87.63    0.00    0.00 -99.000 -99.000 -99.000   0.366   0.063   0.011   0.011   0.006   0.004   0.003   0.002   0.003   0.005   0.435   0.047
   15 156    80  28.00  28.00  15.00 -99.000   6.248   5.759   0.496   5.016   4.520   0.496   0.000   0.000  254.62  157.49   69.37   88.12    0.00    0.00 -99.000 -99.000 -99.000   0.376   0.070   0.012   0.013   0.007   0.004   0.003   0.002   0.003   0.006   0.452   0.041
   15 157    81  25.00  30.00  13.00 -99.000   5.620   5.187   0.438   5.030   4.592   0.438   0.000   0.000  260.24  162.52   73.96   88.56    0.00    0.00 -99.000 -99.000 -99.000   0.344   0.054   0.009   0.010   0.005   0.003   0.002   0.002   0.002   0.005   0.459   0.039
   15 158    82  24.00  26.00  16.00 -99.000   5.274   4.873   0.406   5.688   5.282   0.406   0.000   0.000  265.51  168.21   79.24   88.97    0.00    0.00 -99.000 -99.000 -99.000   0.330   0.044   0.008   0.008   0.004   0.003   0.002   0.001   0.002   0.004   0.528   0.050
   15 159    83   8.00  20.00  12.00 -99.000   1.577   1.462   0.117   3.791   3.674   0.117   0.000   0.000  267.09  172.00   82.92   89.08    0.00    0.00 -99.000 -99.000 -99.000   0.023   0.016   0.005   0.008   0.006   0.006   0.005   0.005   0.009   0.035   0.367   0.051
   15 160    84   6.00  13.00  11.00 -99.000   1.066   0.990   0.078   1.333   1.255   0.078   0.000   0.000  268.16  173.34   84.17   89.16    0.00    0.00 -99.000 -99.000 -99.000   0.017   0.011   0.003   0.005   0.004   0.004   0.003   0.003   0.006   0.022   0.125   0.053
   15 161    85   9.00  18.00  11.00 -99.000   1.716   1.588   0.130   0.328   0.199   0.130   0.000   0.000  269.87  173.66   84.37   89.29    0.00    0.00 -99.000 -99.000 -99.000   0.026   0.019   0.006   0.008   0.007   0.006   0.005   0.005   0.009   0.037   0.020   0.053
   15 162    86  16.00  22.00  14.00 -99.000   3.298   3.049   0.253   1.456   1.203   0.253   0.000   0.000  273.17  175.12   85.58   89.54    0.00    0.00 -99.000 -99.000 -99.000   0.049   0.037   0.013   0.017   0.013   0.012   0.011   0.010   0.018   0.074   0.120   0.053
   15 163    87  28.00  28.00  12.00 -99.000   6.110   5.638   0.478   2.910   2.432   0.478   0.000   0.000  279.28  178.03   88.01   90.02    0.00    0.00 -99.000 -99.000 -99.000   0.091   0.070   0.024   0.032   0.025   0.022   0.020   0.019   0.035   0.140   0.243   0.054
   15 164    88  20.00  25.00  14.00 -99.000   4.279   3.941   0.342   7.600   7.258   0.342   0.000   0.000  283.56  185.63   95.26   90.37    0.00    0.00 -99.000 -99.000 -99.000   0.074   0.049   0.017   0.022   0.017   0.015   0.014   0.013   0.024   0.097   0.726   0.054
   15 165    89  23.00  24.00  15.00 -99.000   4.907   4.512   0.400   4.469   4.069   0.400   0.000   0.000  288.47  190.10   99.33   90.77    0.00    0.00 -99.000 -99.000 -99.000   0.092   0.063   0.022   0.027   0.018   0.016   0.015   0.014   0.026   0.107   0.407   0.055
   15 166    90   9.00  16.00  13.00 -99.000   1.703   1.564   0.142   3.788   3.646   0.142   0.000   0.000  290.17  193.89  102.98   90.91    0.00    0.00 -99.000 -99.000 -99.000   0.031   0.024   0.008   0.012   0.007   0.006   0.005   0.005   0.009   0.036   0.365   0.056
   15 167    91  18.00  19.00  11.00 -99.000   3.485   3.195   0.295   0.808   0.513   0.295   0.000   0.000  293.66  194.69  103.49   91.20    0.00    0.00 -99.000 -99.000 -99.000   0.059   0.045   0.016   0.025   0.018   0.014   0.012   0.011   0.019   0.077   0.051   0.057
   15 168    92  21.00  19.00  10.00 -99.000   4.028   3.687   0.346   2.561   2.215   0.346   0.000   0.000  297.68  197.25  105.71   91.55    0.00    0.00 -99.000 -99.000 -99.000   0.065   0.051   0.017   0.028   0.021   0.018   0.016   0.014   0.023   0.093   0.221   0.057
   15 169    93   8.00  17.00   9.00 -99.000   1.479   1.352   0.129   2.804   2.675   0.129   0.000   0.000  299.16  200.06  108.38   91.68    0.00    0.00 -99.000 -99.000 -99.000   0.026   0.019   0.007   0.010   0.008   0.006   0.006   0.005   0.009   0.034   0.268   0.057
   15 170    94  15.00  15.00  10.00 -99.000   2.725   2.488   0.241   1.403   1.161   0.241   0.000   0.000  301.89  201.46  109.54   91.92    0.00    0.00 -99.000 -99.000 -99.000   0.049   0.035   0.012   0.018   0.015   0.012   0.011   0.009   0.016   0.064   0.116   0.058
   15 171    95  14.00  15.00   9.00 -99.000   2.518   2.295   0.226   1.241   1.015   0.226   0.000   0.000  304.41  202.70  110.56   92.14    0.00    0.00 -99.000 -99.000 -99.000   0.043   0.032   0.011   0.017   0.014   0.012   0.010   0.009   0.016   0.062   0.102   0.058
   15 172    96  14.00  17.00   9.00 -99.000   2.590   2.358   0.235   1.366   1.131   0.235   0.000   0.000  307.00  204.07  111.69   92.38    0.00    0.00 -99.000 -99.000 -99.000   0.043   0.033   0.011   0.018   0.015   0.012   0.011   0.010   0.017   0.065   0.113   0.059
   15 173    97  14.00  20.00  11.00 -99.000   2.748   2.498   0.253   1.901   1.649   0.253   0.000   0.000  309.74  205.97  113.34   92.63    0.00    0.00 -99.000 -99.000 -99.000   0.052   0.036   0.012   0.019   0.015   0.013   0.011   0.010   0.017   0.067   0.165   0.059
   15 174    98  19.00  16.00   9.00 -99.000   3.472   3.152   0.324   2.515   2.191   0.324   0.000   0.000  313.22  208.49  115.53   92.96    0.00    0.00 -99.000 -99.000 -99.000   0.070   0.047   0.017   0.024   0.019   0.016   0.014   0.012   0.021   0.083   0.219   0.059
   15 175    99  22.00  19.00   8.00 -99.000   4.152   3.765   0.393   2.070   1.677   0.393   0.000   0.000  317.37  210.56  117.21   93.35    0.00    0.00 -99.000 -99.000 -99.000   0.077   0.056   0.020   0.030   0.024   0.020   0.018   0.016   0.027   0.106   0.168   0.060
   15 176   100  22.00  21.00   6.00 -99.000   4.189   3.793   0.401   3.575   3.174   0.401   0.000   0.000  321.56  214.13  120.38   93.75    0.00    0.00 -99.000 -99.000 -99.000   0.074   0.056   0.020   0.031   0.025   0.021   0.018   0.016   0.028   0.110   0.317   0.060
   15 177   101  24.00  24.00   8.00 -99.000   4.837   4.380   0.463   4.621   4.158   0.463   0.000   0.000  326.39  218.75  124.54   94.21    0.00    0.00 -99.000 -99.000 -99.000   0.083   0.065   0.023   0.036   0.029   0.024   0.022   0.019   0.033   0.130   0.416   0.061
   15 178   102  13.00  22.00  13.00 -99.000   2.666   2.407   0.261   5.925   5.663   0.261   0.000   0.000  329.06  224.68  130.20   94.47    0.00    0.00 -99.000 -99.000 -99.000   0.213   0.029   0.005   0.005   0.003   0.002   0.001   0.001   0.001   0.002   0.566   0.061
   15 179   103  24.00  22.00  13.00 -99.000   4.921   4.431   0.496   2.810   2.314   0.496   0.000   0.000  333.98  227.49  132.51   94.97    0.00    0.00 -99.000 -99.000 -99.000   0.398   0.058   0.010   0.010   0.005   0.003   0.002   0.002   0.002   0.005   0.231   0.061
   15 180   104  23.00  25.00  12.00 -99.000   4.857   4.357   0.505   3.919   3.414   0.505   0.000   0.000  338.84  231.40  135.93   95.48    0.00    0.00 -99.000 -99.000 -99.000   0.399   0.062   0.011   0.011   0.006   0.004   0.003   0.002   0.002   0.005   0.341   0.061
   15 181   105  27.00  29.00  12.00 -99.000   5.983   5.348   0.641   5.598   4.957   0.641   0.000   0.000  344.82  237.00  140.89   96.12    0.00    0.00 -99.000 -99.000 -99.000   0.499   0.084   0.014   0.015   0.008   0.005   0.003   0.003   0.003   0.007   0.496   0.061
   15 182   106  28.00  28.00  13.00 -99.000   6.181   5.503   0.684   8.078   7.394   0.684   0.000   0.000  351.00  245.08  148.28   96.80    0.00    0.00 -99.000 -99.000 -99.000   0.519   0.097   0.017   0.018   0.009   0.006   0.004   0.003   0.004   0.008   0.739   0.053
   15 183   107  29.00  29.00  14.00 -99.000   6.529   5.786   0.749   7.329   6.720   0.609   0.000   0.000  357.53  252.41  155.00   97.41    0.00    0.00 -99.000 -99.000 -99.000   0.448   0.094   0.016   0.017   0.009   0.006   0.004   0.003   0.004   0.008   0.672   0.050
   15 184   108  23.00  31.00  14.00 -99.000   5.299   4.674   0.629   7.476   6.939   0.538   0.000   0.000  362.83  259.89  161.94   97.95    0.00    0.00 -99.000 -99.000 -99.000   0.385   0.088   0.015   0.016   0.009   0.006   0.004   0.003   0.004   0.008   0.694   0.050
   15 185   109  27.00  32.00  16.00 -99.000   6.387   5.605   0.787   7.157   6.673   0.484   0.000   0.000  369.22  267.04  168.61   98.43    0.00    0.00 -99.000 -99.000 -99.000   0.340   0.083   0.013   0.015   0.008   0.005   0.004   0.003   0.004   0.008   0.667   0.048
   15 186   110  27.00  33.00  17.00 -99.000   6.507   5.680   0.833   7.351   6.905   0.446   0.000   0.000  375.72  274.39  175.52   98.88    0.00    0.00 -99.000 -99.000 -99.000   0.309   0.078   0.012   0.015   0.008   0.005   0.004   0.003   0.004   0.008   0.691   0.042
   15 187   111  23.00  28.00  17.00 -99.000   5.247   4.553   0.699   6.515   6.104   0.411   0.000   0.000  380.97  280.91  181.62   99.29    0.00    0.00 -99.000 -99.000 -99.000   0.281   0.074   0.011   0.014   0.007   0.005   0.004   0.003   0.004   0.008   0.610   0.031
   15 188   112  26.00  33.00  16.00 -99.000   6.224   5.400   0.830   4.688   4.130   0.559   0.000   0.000  387.20  285.60  185.75   99.85    0.00    0.00 -99.000 -99.000 -99.000   0.435   0.070   0.010   0.013   0.007   0.005   0.003   0.003   0.004   0.008   0.413   0.025
   15 189   113  16.00  21.00  13.00 -99.000   3.254   2.822   0.435   6.872   6.436   0.435   0.000   0.000  390.45  292.47  192.19  100.28    0.00    0.00 -99.000 -99.000 -99.000   0.378   0.033   0.005   0.006   0.003   0.002   0.002   0.001   0.002   0.004   0.644   0.028
   15 190   114  17.00  19.00   8.00 -99.000   3.228   2.797   0.435   2.515   2.079   0.435   0.000   0.000  393.68  294.98  194.27  100.72    0.00    0.00 -99.000 -99.000 -99.000   0.099   0.045   0.012   0.025   0.021   0.018   0.017   0.017   0.033   0.148   0.208   0.029
   15 191   115  29.00  22.00   7.00 -99.000   5.683   4.917   0.773   3.269   2.497   0.773   0.000   0.000  399.36  298.25  196.76  101.49    0.00    0.00 -99.000 -99.000 -99.000   0.680   0.054   0.007   0.009   0.005   0.003   0.002   0.002   0.003   0.006   0.250   0.028
   15 192   116  26.00  28.00   8.00 -99.000   5.545   4.791   0.760   5.952   5.192   0.760   0.000   0.000  404.90  304.20  201.95  102.25    0.00    0.00 -99.000 -99.000 -99.000   0.659   0.059   0.008   0.010   0.006   0.004   0.003   0.002   0.003   0.007   0.519   0.026
   15 193   117  24.00  27.00  13.00 -99.000   5.261   4.538   0.728   8.213   7.493   0.719   0.000   0.000  410.17  312.42  209.45  102.97    0.00    0.00 -99.000 -99.000 -99.000   0.607   0.065   0.009   0.011   0.006   0.004   0.003   0.002   0.004   0.008   0.749   0.024
   15 194   118  10.00  21.00  15.00 -99.000   2.069   1.781   0.290   5.597   5.306   0.290   0.000   0.000  412.23  318.01  214.75  103.26    0.00    0.00 -99.000 -99.000 -99.000   0.239   0.029   0.004   0.005   0.003   0.002   0.001   0.001   0.002   0.004   0.531   0.012
   15 195   119  16.00  25.00  15.00 -99.000   3.479   2.985   0.497   1.725   1.227   0.497   0.000   0.000  415.71  319.74  215.98  103.76    0.00    0.00 -99.000 -99.000 -99.000   0.410   0.050   0.007   0.009   0.005   0.003   0.002   0.002   0.003   0.007   0.123   0.012
   15 196   120  23.00  27.00  16.00 -99.000   5.162   4.415   0.752   3.445   2.906   0.539   0.000   0.000  420.88  323.18  218.89  104.30    0.00    0.00 -99.000 -99.000 -99.000   0.437   0.058   0.008   0.011   0.006   0.004   0.003   0.002   0.003   0.008   0.291   0.011
[...]
   15 166    90   9.00  16.00  13.00 -99.000   1.814   1.080   0.735   2.136   1.401   0.735   0.000   0.000  298.67  161.21   36.99  124.22    0.00    0.00 -99.000 -99.000 -99.000   0.157   0.119   0.041   0.061   0.046   0.037   0.030   0.026   0.044   0.175   0.140   0.026
   15 167    91  18.00  19.00  11.00 -99.000   3.716   2.198   1.521   1.709   0.188   1.521   0.000   0.000  302.39  162.92   37.18  125.74    0.00    0.00 -99.000 -99.000 -99.000   0.297   0.229   0.078   0.125   0.100   0.080   0.067   0.058   0.099   0.388   0.019   0.026
   15 168    92  21.00  19.00  10.00 -99.000   4.283   2.517   1.769   2.664   0.895   1.769   0.000   0.000  306.67  165.59   38.07  127.51    0.00    0.00 -99.000 -99.000 -99.000   0.327   0.257   0.088   0.142   0.113   0.094   0.080   0.071   0.122   0.475   0.089   0.026
   15 169    93   8.00  17.00   9.00 -99.000   1.570   0.917   0.655   1.746   1.092   0.655   0.000   0.000  308.24  167.33   39.17  128.17    0.00    0.00 -99.000 -99.000 -99.000   0.133   0.096   0.034   0.051   0.040   0.034   0.029   0.025   0.044   0.170   0.109   0.027
   15 170    94  15.00  15.00  10.00 -99.000   2.910   1.690   1.223   1.692   0.470   1.223   0.000   0.000  311.15  169.03   39.64  129.39    0.00    0.00 -99.000 -99.000 -99.000   0.246   0.177   0.062   0.093   0.074   0.063   0.055   0.048   0.083   0.322   0.047   0.027
   15 171    95  14.00  15.00   9.00 -99.000   2.681   1.548   1.135   1.585   0.450   1.135   0.000   0.000  313.83  170.61   40.09  130.53    0.00    0.00 -99.000 -99.000 -99.000   0.214   0.161   0.056   0.087   0.070   0.059   0.052   0.046   0.079   0.309   0.045   0.027
   15 172    96  14.00  17.00   9.00 -99.000   2.754   1.582   1.175   1.688   0.513   1.175   0.000   0.000  316.59  172.30   40.60  131.70    0.00    0.00 -99.000 -99.000 -99.000   0.213   0.165   0.057   0.091   0.073   0.062   0.055   0.049   0.083   0.325   0.051   0.027
   15 173    97  14.00  20.00  11.00 -99.000   2.920   1.668   1.255   2.036   0.781   1.255   0.000   0.000  319.51  174.34   41.38  132.96    0.00    0.00 -99.000 -99.000 -99.000   0.257   0.179   0.062   0.095   0.075   0.064   0.056   0.050   0.085   0.333   0.078   0.028
   15 174    98  19.00  16.00   9.00 -99.000   3.713   2.106   1.610   2.708   1.098   1.610   0.000   0.000  323.22  177.04   42.48  134.57    0.00    0.00 -99.000 -99.000 -99.000   0.349   0.233   0.083   0.120   0.095   0.079   0.070   0.062   0.106   0.413   0.110   0.028
   15 175    99  22.00  19.00   8.00 -99.000   4.435   2.502   1.937   2.784   0.848   1.937   0.000   0.000  327.66  179.83   43.33  136.50    0.00    0.00 -99.000 -99.000 -99.000   0.377   0.275   0.098   0.149   0.118   0.100   0.088   0.078   0.133   0.521   0.085   0.028
   15 176   100  22.00  21.00   6.00 -99.000   4.463   2.503   1.964   3.561   1.597   1.964   0.000   0.000  332.12  183.39   44.92  138.47    0.00    0.00 -99.000 -99.000 -99.000   0.360   0.276   0.097   0.153   0.122   0.103   0.091   0.081   0.139   0.542   0.160   0.029
   15 177   101  24.00  24.00   8.00 -99.000   5.147   2.885   2.265   4.340   2.075   2.265   0.000   0.000  337.27  187.73   47.00  140.73    0.00    0.00 -99.000 -99.000 -99.000   0.398   0.317   0.111   0.177   0.141   0.120   0.106   0.094   0.163   0.637   0.207   0.029
   15 178   102  13.00  22.00  13.00 -99.000   2.835   1.572   1.264   3.981   2.967   1.014   0.000   0.000  340.10  191.71   49.96  141.75    0.00    0.00 -99.000 -99.000 -99.000   0.820   0.115   0.020   0.020   0.011   0.007   0.005   0.003   0.004   0.009   0.297   0.030
   15 179   103  24.00  22.00  13.00 -99.000   5.226   2.863   2.366   2.199   1.309   0.890   0.000   0.000  345.33  193.91   51.27  142.63    0.00    0.00 -99.000 -99.000 -99.000   0.701   0.112   0.019   0.020   0.010   0.007   0.004   0.003   0.004   0.009   0.131   0.030
   15 180   104  23.00  25.00  12.00 -99.000   5.153   2.788   2.369   2.725   1.920   0.805   0.000   0.000  350.48  196.63   53.19  143.44    0.00    0.00 -99.000 -99.000 -99.000   0.618   0.110   0.019   0.020   0.010   0.006   0.004   0.003   0.004   0.009   0.192   0.030
   15 181   105  27.00  29.00  12.00 -99.000   6.342   3.394   2.951   3.536   2.816   0.720   0.000   0.000  356.82  200.17   56.01  144.16    0.00    0.00 -99.000 -99.000 -99.000   0.537   0.108   0.019   0.020   0.010   0.006   0.004   0.003   0.004   0.009   0.282   0.027
   15 182   106  28.00  28.00  13.00 -99.000   6.545   3.469   3.080   4.885   4.246   0.639   0.000   0.000  363.37  205.05   60.26  144.80    0.00    0.00 -99.000 -99.000 -99.000   0.460   0.104   0.018   0.019   0.010   0.006   0.004   0.003   0.004   0.009   0.425   0.026
   15 183   107  29.00  29.00  14.00 -99.000   6.908   3.621   3.291   4.410   3.846   0.564   0.000   0.000  370.27  209.46   64.10  145.36    0.00    0.00 -99.000 -99.000 -99.000   0.391   0.100   0.018   0.019   0.010   0.006   0.004   0.003   0.004   0.008   0.385   0.026
   15 184   108  23.00  31.00  14.00 -99.000   5.604   2.905   2.703   4.457   3.946   0.511   0.000   0.000  375.88  213.92   68.05  145.87    0.00    0.00 -99.000 -99.000 -99.000   0.345   0.095   0.017   0.018   0.010   0.006   0.004   0.003   0.004   0.008   0.395   0.026
   15 185   109  27.00  32.00  16.00 -99.000   6.754   3.458   3.299   4.241   3.769   0.472   0.000   0.000  382.63  218.16   71.82  146.35    0.00    0.00 -99.000 -99.000 -99.000   0.313   0.090   0.017   0.018   0.009   0.006   0.004   0.003   0.004   0.008   0.377   0.026
   15 186   110  27.00  33.00  17.00 -99.000   6.880   3.478   3.405   4.311   3.873   0.438   0.000   0.000  389.51  222.47   75.69  146.78    0.00    0.00 -99.000 -99.000 -99.000   0.285   0.086   0.016   0.017   0.009   0.006   0.004   0.003   0.004   0.008   0.387   0.026
   15 187   111  23.00  28.00  17.00 -99.000   5.547   2.766   2.784   3.782   3.376   0.406   0.000   0.000  395.06  226.26   79.06  147.19    0.00    0.00 -99.000 -99.000 -99.000   0.259   0.081   0.015   0.017   0.009   0.006   0.004   0.003   0.004   0.008   0.338   0.025
   15 188   112  26.00  33.00  16.00 -99.000   6.577   3.279   3.301   2.781   2.224   0.557   0.000   0.000  401.64  229.04   81.29  147.75    0.00    0.00 -99.000 -99.000 -99.000   0.415   0.077   0.015   0.016   0.009   0.006   0.004   0.003   0.004   0.008   0.222   0.024
   15 189   113  16.00  21.00  13.00 -99.000   3.458   1.722   1.738   4.369   3.442   0.926   0.000   0.000  405.09  233.41   84.73  148.67    0.00    0.00 -99.000 -99.000 -99.000   0.785   0.078   0.014   0.016   0.008   0.006   0.004   0.003   0.004   0.008   0.344   0.025
   15 190   114  17.00  19.00   8.00 -99.000   3.453   1.714   1.741   2.145   1.103   1.043   0.000   0.000  408.55  235.55   85.83  149.72    0.00    0.00 -99.000 -99.000 -99.000   0.903   0.077   0.014   0.015   0.008   0.005   0.004   0.003   0.004   0.008   0.110   0.028
   15 191   115  29.00  22.00   7.00 -99.000   6.066   3.004   3.067   2.256   1.313   0.943   0.000   0.000  414.61  237.81   87.15  150.66    0.00    0.00 -99.000 -99.000 -99.000   0.806   0.076   0.014   0.015   0.008   0.005   0.004   0.003   0.004   0.008   0.131   0.027
   15 192   116  26.00  28.00   8.00 -99.000   5.910   2.918   2.996   3.557   2.707   0.850   0.000   0.000  420.52  241.36   89.85  151.51    0.00    0.00 -99.000 -99.000 -99.000   0.714   0.075   0.013   0.015   0.008   0.005   0.004   0.003   0.004   0.008   0.271   0.026
   15 193   117  24.00  27.00  13.00 -99.000   5.599   2.755   2.847   4.623   3.880   0.743   0.000   0.000  426.12  245.99   93.73  152.25    0.00    0.00 -99.000 -99.000 -99.000   0.610   0.072   0.013   0.015   0.008   0.005   0.004   0.003   0.004   0.008   0.388   0.025
   15 194   118  10.00  21.00  15.00 -99.000   2.198   1.076   1.123   3.425   2.751   0.673   0.000   0.000  428.32  249.41   96.48  152.93    0.00    0.00 -99.000 -99.000 -99.000   0.545   0.069   0.012   0.014   0.008   0.005   0.004   0.003   0.004   0.008   0.275   0.019
   15 195   119  16.00  25.00  15.00 -99.000   3.698   1.798   1.902   1.282   0.641   0.640   0.000   0.000  432.02  250.69   97.13  153.57    0.00    0.00 -99.000 -99.000 -99.000   0.516   0.067   0.012   0.014   0.008   0.005   0.004   0.003   0.004   0.008   0.064   0.018
   15 196   120  23.00  27.00  16.00 -99.000   5.482   2.647   2.838   2.121   1.534   0.587   0.000   0.000  437.50  252.81   98.66  154.15    0.00    0.00 -99.000 -99.000 -99.000   0.463   0.066   0.012   0.014   0.008   0.005   0.004   0.003   0.004   0.008   0.153   0.017
   15 197   121  26.00  31.00  13.00 -99.000   6.338   3.033   3.308   2.711   2.179   0.532   0.000   0.000  443.84  255.52  100.84  154.68    0.00    0.00 -99.000 -99.000 -99.000   0.410   0.065   0.012   0.014   0.007   0.005   0.004   0.003   0.004   0.008   0.218   0.016
   15 198   122  23.00  33.00  15.00 -99.000   5.817   2.753   3.067   4.091   3.608   0.483   0.000   0.000  449.66  259.62  104.45  155.17    0.00    0.00 -99.000 -99.000 -99.000   0.363   0.064   0.011   0.013   0.007   0.005   0.004   0.003   0.004   0.008   0.361   0.015
   15 199   123  16.00  29.00  14.00 -99.000   3.840   1.795   2.047   3.642   3.202   0.440   0.000   0.000  453.49  263.26  107.65  155.61    0.00    0.00 -99.000 -99.000 -99.000   0.325   0.061   0.011   0.013   0.007   0.005   0.004   0.003   0.004   0.008   0.320   0.013
   15 200   124  16.00  28.00  16.00 -99.000   3.856   1.774   2.084   2.564   2.157   0.407   0.000   0.000  457.35  265.82  109.81  156.01    0.00    0.00 -99.000 -99.000 -99.000   0.296   0.059   0.010   0.012   0.007   0.005   0.004   0.003   0.004   0.008   0.216   0.012
   15 201   125  19.00  28.00  18.00 -99.000   4.651   2.106   2.547   2.113   1.734   0.379   0.000   0.000  462.00  267.93  111.54  156.39    0.00    0.00 -99.000 -99.000 -99.000   0.269   0.058   0.010   0.012   0.007   0.005   0.004   0.003   0.004   0.008   0.173   0.011
   15 202   126  26.00  32.00  16.00 -99.000   6.561   2.917   3.647   1.959   1.606   0.353   0.000   0.000  468.56  269.89  113.15  156.75    0.00    0.00 -99.000 -99.000 -99.000   0.245   0.057   0.010   0.012   0.007   0.005   0.004   0.003   0.004   0.008   0.161   0.011
   15 203   127  25.00  34.00  15.00 -99.000   6.406   2.788   3.621   3.151   2.822   0.329   0.000   0.000  474.97  273.04  115.97  157.07    0.00    0.00 -99.000 -99.000 -99.000   0.223   0.056   0.009   0.012   0.006   0.005   0.003   0.003   0.004   0.008   0.282   0.011
   15 204   128  12.00  24.00  18.00 -99.000   2.812   1.194   1.619   3.321   2.969   0.351   0.000   0.000  477.78  276.37  118.94  157.43    0.00    0.00 -99.000 -99.000 -99.000   0.248   0.055   0.009   0.011   0.006   0.004   0.003   0.003   0.004   0.008   0.297   0.010
   15 205   129  21.00  29.00  14.00 -99.000   5.079   2.072   3.009   0.998   0.627   0.372   0.000   0.000  482.86  277.36  119.57  157.80    0.00    0.00 -99.000 -99.000 -99.000   0.271   0.053   0.009   0.011   0.006   0.004   0.003   0.003   0.004   0.008   0.063   0.009
   15 206   130  21.00  25.00  12.00 -99.000   4.771   1.893   2.881   2.395   2.048   0.347   0.000   0.000  487.63  279.76  121.61  158.14    0.00    0.00 -99.000 -99.000 -99.000   0.246   0.053   0.009   0.011   0.006   0.004   0.003   0.003   0.004   0.008   0.205   0.009
   15 207   131  26.00  23.00   8.00 -99.000   5.575   2.143   3.435   1.920   1.597   0.323   0.000   0.000  493.21  281.68  123.21  158.47    0.00    0.00 -99.000 -99.000 -99.000   0.224   0.052   0.009   0.011   0.006   0.004   0.003   0.003   0.004   0.008   0.160   0.009
   15 208   132  19.00  23.00  12.00 -99.000   4.221   1.574   2.649   2.212   1.776   0.436   0.000   0.000  497.43  283.89  124.99  158.90    0.00    0.00 -99.000 -99.000 -99.000   0.339   0.051   0.008   0.010   0.006   0.004   0.003   0.002   0.004   0.008   0.178   0.008
   15 209   133  17.00  22.00  12.00 -99.000   3.762   1.365   2.399   1.697   1.114   0.584   0.000   0.000  501.19  285.59  126.10  159.49    0.00    0.00 -99.000 -99.000 -99.000   0.488   0.051   0.008   0.010   0.006   0.004   0.003   0.002   0.004   0.008   0.111   0.008
   15 210   134  12.00  20.00   9.00 -99.000   2.528   0.886   1.643   1.492   0.874   0.618   0.000   0.000  503.72  287.08  126.97  160.11    0.00    0.00 -99.000 -99.000 -99.000   0.522   0.050   0.008   0.010   0.006   0.004   0.003   0.002   0.004   0.008   0.087   0.008
   15 211   135  21.00  21.00   7.00 -99.000   4.417   1.494   2.925   1.247   0.643   0.603   0.000   0.000  508.13  288.33  127.62  160.71    0.00    0.00 -99.000 -99.000 -99.000   0.508   0.050   0.008   0.010   0.006   0.004   0.003   0.002   0.004   0.008   0.064   0.008
   15 212   136  25.00  23.00   9.00 -99.000   5.495   1.797   3.701   1.644   1.098   0.547   0.000   0.000  513.63  289.97  128.72  161.26    0.00    0.00 -99.000 -99.000 -99.000   0.452   0.049   0.008   0.010   0.006   0.004   0.003   0.002   0.004   0.008   0.110   0.008
   15 213   137  10.00  20.00  13.00 -99.000   2.189   0.691   1.499   1.792   1.300   0.493   0.000   0.000  515.82  291.76  130.02  161.75    0.00    0.00 -99.000 -99.000 -99.000   0.399   0.049   0.008   0.010   0.005   0.004   0.003   0.002   0.004   0.008   0.130   0.007
   15 214   138  19.00  25.00  12.00 -99.000   4.396   1.328   3.070   0.796   0.349   0.447   0.000   0.000  520.21  292.56  130.36  162.20    0.00    0.00 -99.000 -99.000 -99.000   0.354   0.049   0.008   0.010   0.005   0.004   0.003   0.002   0.004   0.008   0.035   0.007
   15 215   139  26.00  28.00  11.00 -99.000   6.196   1.780   4.418   1.413   0.998   0.414   0.000   0.000  526.41  293.97  131.36  162.61    0.00    0.00 -99.000 -99.000 -99.000   0.322   0.048   0.008   0.010   0.005   0.004   0.003   0.002   0.004   0.008   0.100   0.007
   15 216   140  21.00  31.00  12.00 -99.000   5.233   1.411   3.823   1.891   1.506   0.385   0.000   0.000  531.64  295.86  132.87  162.99    0.00    0.00 -99.000 -99.000 -99.000   0.293   0.048   0.008   0.010   0.005   0.004   0.003   0.002   0.004   0.008   0.151   0.006
   15 217   141  24.00  29.00  13.00 -99.000   5.901   1.476   4.427   1.725   1.367   0.358   0.000   0.000  537.54  297.59  134.23  163.35    0.00    0.00 -99.000 -99.000 -99.000   0.267   0.048   0.008   0.010   0.005   0.004   0.003   0.002   0.003   0.008   0.137   0.006
   15 218   142  25.00  33.00  13.00 -99.000   6.450   1.468   4.983   1.490   1.157   0.333   0.000   0.000  543.99  299.08  135.39  163.69    0.00    0.00 -99.000 -99.000 -99.000   0.243   0.047   0.008   0.010   0.005   0.004   0.003   0.002   0.003   0.008   0.116   0.006
   15 219   143  25.00  35.00  14.00 -99.000   6.660   1.357   5.304   1.577   1.265   0.311   0.000   0.000  550.65  300.65  136.66  164.00    0.00    0.00 -99.000 -99.000 -99.000   0.221   0.047   0.008   0.009   0.005   0.004   0.003   0.002   0.003   0.008   0.127   0.006
   15 220   144  22.00  34.00  15.00 -99.000   5.874   0.940   4.935   1.306   0.971   0.335   0.000   0.000  556.53  301.96  137.63  164.33    0.00    0.00 -99.000 -99.000 -99.000   0.246   0.047   0.008   0.009   0.005   0.003   0.003   0.002   0.003   0.008   0.097   0.006
   15 221   145  22.00  33.00  16.00 -99.000   5.932   0.536   5.396   0.823   0.465   0.358   0.000   0.000  562.46  302.78  138.09  164.69    0.00    0.00 -99.000 -99.000 -99.000   0.269   0.046   0.008   0.009   0.005   0.003   0.003   0.002   0.003   0.008   0.047   0.005
   15 222   146  18.00  30.00  17.00 -99.000   4.777   0.089   4.689   0.420   0.086   0.333   0.000   0.000  567.24  303.20  138.18  165.02    0.00    0.00 -99.000 -99.000 -99.000   0.245   0.046   0.008   0.009   0.005   0.003   0.003   0.002   0.003   0.008   0.009   0.005
   15 223   147  19.00  31.00  16.00 -99.000   5.070   0.000   5.070   0.323   0.012   0.311   0.000   0.000  572.31  303.52  138.19  165.33    0.00    0.00 -99.000 -99.000 -99.000   0.223   0.046   0.008   0.009   0.005   0.003   0.003   0.002   0.003   0.008   0.001   0.000
   15 224   148  21.00  33.00  14.00 -99.000   5.640   0.000   5.640   0.305   0.014   0.291   0.000   0.000  577.95  303.83  138.20  165.62    0.00    0.00 -99.000 -99.000 -99.000   0.203   0.046   0.008   0.009   0.005   0.003   0.003   0.002   0.003   0.008   0.001   0.000
   15 225   149  21.00  33.00  14.00 -99.000   5.635   0.000   5.635   0.290   0.018   0.272   0.000   0.000  583.58  304.12  138.22  165.90    0.00    0.00 -99.000 -99.000 -99.000   0.185   0.045   0.008   0.009   0.005   0.003   0.003   0.002   0.003   0.008   0.002   0.000
   15 226   150  19.00  32.00  17.00 -99.000   5.151   0.000   5.151   0.452   0.018   0.435   0.000   0.000  588.73  304.57  138.24  166.33    0.00    0.00 -99.000 -99.000 -99.000   0.347   0.045   0.008   0.009   0.005   0.003   0.003   0.002   0.003   0.008   0.002   0.000
   15 227   151  15.00  25.00  15.00 -99.000   3.754   0.000   3.754   0.600   0.018   0.582   0.000   0.000  592.49  305.17  138.26  166.91    0.00    0.00 -99.000 -99.000 -99.000   0.496   0.045   0.008   0.009   0.005   0.003   0.003   0.002   0.003   0.008   0.002   0.000
   15 228   152   6.00  18.00  14.00 -99.000   1.361   0.000   1.361   0.808   0.018   0.791   0.000   0.000  593.85  305.98  138.28  167.70    0.00    0.00 -99.000 -99.000 -99.000   0.703   0.046   0.008   0.009   0.005   0.003   0.003   0.002   0.003   0.008   0.002   0.000
   15 229   153   6.00  15.00  12.00 -99.000   1.309   0.000   1.309   1.327   0.018   1.309   0.000   0.000  595.16  307.31  138.29  169.01    0.00    0.00 -99.000 -99.000 -99.000   0.346   0.106   0.034   0.061   0.051   0.048   0.052   0.050   0.099   0.463   0.002   0.000
   15 230   154  17.00  21.00  11.00 -99.000   4.019   0.000   4.019   4.037   0.018   4.019   0.000   0.000  599.18  311.34  138.31  173.03    0.00    0.00 -99.000 -99.000 -99.000   1.048   0.366   0.102   0.185   0.155   0.144   0.157   0.151   0.302   1.409   0.002   0.000
   15 231   155  10.00  20.00  13.00 -99.000   2.356   0.000   2.356   1.013   0.018   0.996   0.000   0.000  601.53  312.36  138.33  174.03    0.00    0.00 -99.000 -99.000 -99.000   0.896   0.058   0.008   0.009   0.005   0.003   0.003   0.002   0.003   0.008   0.002   0.000
   15 232   156  11.00  20.00  12.00 -99.000   2.560   0.000   2.560   0.933   0.018   0.915   0.000   0.000  604.09  313.29  138.35  174.94    0.00    0.00 -99.000 -99.000 -99.000   0.816   0.058   0.008   0.009   0.005   0.003   0.003   0.002   0.003   0.008   0.002   0.000
   15 233   157  16.00  21.00   9.00 -99.000   3.662   0.000   3.662   0.859   0.018   0.841   0.000   0.000  607.75  314.15  138.36  175.79    0.00    0.00 -99.000 -99.000 -99.000   0.743   0.058   0.008   0.009   0.005   0.003   0.003   0.002   0.003   0.008   0.002   0.000
   15 234   158  21.00  24.00   8.00 -99.000   4.940   0.000   4.940   0.792   0.018   0.775   0.000   0.000  612.69  314.94  138.38  176.56    0.00    0.00 -99.000 -99.000 -99.000   0.676   0.057   0.008   0.009   0.005   0.003   0.003   0.002   0.003   0.008   0.002   0.000
   15 235   159  20.00  27.00  11.00 -99.000   4.993   0.000   4.993   0.821   0.018   0.803   0.000   0.000  617.69  315.76  138.40  177.36    0.00    0.00 -99.000 -99.000 -99.000   0.705   0.057   0.008   0.009   0.005   0.003   0.003   0.002   0.003   0.008   0.002   0.000
   15 236   160  16.00  28.00  14.00 -99.000   4.162   0.000   4.162   4.180   0.018   4.162   0.000   0.000  621.85  319.94  138.42  181.52    0.00    0.00 -99.000 -99.000 -99.000   1.048   0.575   0.117   0.177   0.149   0.139   0.151   0.146   0.292   1.369   0.002   0.000
   15 237   161  20.00  21.00   8.00 -99.000   4.633   0.000   4.633   4.651   0.018   4.633   0.000   0.000  626.48  324.59  138.44  186.16    0.00    0.00 -99.000 -99.000 -99.000   1.230   0.804   0.158   0.176   0.149   0.139   0.152   0.147   0.294   1.384   0.002   0.000
