*GHG emissions output file

*DSSAT Cropping System Model Ver. 4.8.5.000 -release  FEB 02, 2026 11:46:55

*RUN   1        : 1                         WHAPS048 TUDU1501    1
 MODEL          : WHAPS048 - Wheat
 EXPERIMENT     : TUDU1501 WH
 DATA PATH      :
 TREATMENT  1   : 1                         WHAPS048
  
!               |---------- Daily (g/ha) ----------|------- Cumulative (kg/ha) --------|---- Cum CO2-equiv kg[CO2eq]/ha ---|
!               Soil CO2  Net CO2      N2O      CH4 Soil CO2  Net CO2      N2O      CH4  Net CO2      N2O      CH4    Total
!                g[C]/ha  g[C]/ha  g[N]/ha  g[C]/ha kg[C]/ha kg[C]/ha kg[N]/ha kg[C]/ha    CO2eq    CO2eq    CO2eq    CO2eq
@YEAR DOY   DAS   CO2GED   CO2END   N2OGED   CH4GED    CO2EC   CO2ENC    N2OEC    CH4EC    CCEQC    NCEQC    MCEQC    TCEQC
   15 077     1    12360     1656     0.01     0.00       12        2     0.00     0.00        6        0        0        6
   15 078     2    10581     1563     0.01     0.00       23        3     0.00     0.00       12        0        0       12
   15 079     3     8293     1313     0.01     0.00       31        5     0.00     0.00       17        0        0       17
   15 080     4     5921     1031     0.02     0.00       37        6     0.00     0.00       20        0        0       20
   15 081     5     3797      656     0.02     0.00       41        6     0.00     0.00       23        0        0       23
   15 082     6      821      281     0.02     0.00       42        7     0.00     0.00       24        0        0       24
   15 083     7      130        0     0.02     0.00       42        7     0.00     0.00       24        0        0       24
   15 084     8      146      125     0.03     0.00       42        7     0.00     0.00       24        0        0       24
   15 085     9      675      219     0.03     0.00       43        7     0.00     0.00       25        0        0       25
   15 086    10      786      219     0.03     0.00       44        7     0.00     0.00       26        0        0       26
   15 087    11     1747      406     0.03     0.00       45        7     0.00     0.00       27        0        0       28
   15 088    12     2843      656     0.03     0.00       48        8     0.00     0.00       30        0        0       30
   15 089    13     3811      813     0.04     0.00       52        9     0.00     0.00       33        0        0       33
   15 090    14     3354      531     0.03     0.00       55        9     0.00     0.00       35        0        0       35
   15 091    15     3994      625     0.03     0.00       59       10     0.00     0.00       37        0        0       37
   15 092    16     2685      500     0.02     0.00       62       11     0.00     0.00       39        0        0       39
   15 093    17     1332      281     0.02     0.00       63       11     0.00     0.00       40        0        0       40
   15 094    18       74        0     0.04     0.00       63       11     0.00     0.00       40        0        0       40
   15 095    19       14       31     0.03     0.00       63       11     0.00     0.00       40        0        0       40
   15 096    20        0        0     0.05     0.00       63       11     0.00     0.00       40        0        0       40
   15 097    21        0        0     0.06     0.00       63       11     0.00     0.00       40        0        0       40
   15 098    22        0        0     0.06     0.00       63       11     0.00     0.00       40        0        0       40
   15 099    23        0        0     0.30     0.00       63       11     0.00     0.00       40        0        0       40
   15 100    24       72       31     0.60     0.00       63       11     0.00     0.00       40        1        0       41
   15 101    25     3153      531     0.93     0.00       67       11     0.00     0.00       42        1        0       43
   15 102    26     6960     1219     1.28     0.00       74       13     0.00     0.00       47        2        0       48
   15 103    27    10138     1813     1.62     0.00       84       15     0.01     0.00       53        3        0       56
   15 104    28    11731     2219     1.88     0.00       95       17     0.01     0.00       61        3        0       65
   15 105    29    11871     2375     2.00     0.00      107       19     0.01     0.00       70        4        0       74
   15 106    30    12515     2781     2.05     0.00      120       22     0.01     0.00       80        5        0       86
   15 107    31    13184     3063     2.03     0.00      133       25     0.01     0.00       92        6        0       98
   15 108    32    15845     2656     0.59     0.00      149       28     0.01     0.00      101        7        0      108
   15 109    33    13878     1938     1.35     0.00      163       30     0.02     0.00      108        7        0      116
   15 110    34    11581     1625     1.81     0.00      174       31     0.02     0.00      114        8        0      122
   15 111    35     8543     1313     1.65     0.00      183       32     0.02     0.00      119        9        0      128
   15 112    36     6140     1094     1.50     0.00      189       34     0.02     0.00      123        9        0      133
   15 113    37     5871     1094     1.36     0.00      195       35     0.02     0.00      127       10        0      137
   15 114    38     5984     1281     1.24     0.00      201       36     0.02     0.00      132       11        0      143
   15 115    39     6907     1469     1.13     0.00      208       37     0.02     0.00      137       11        0      148
   15 116    40     7856     1813     1.00     0.00      216       39     0.02     0.00      144       12        0      156
   15 117    41     9486     2250     0.89     0.00      225       41     0.03     0.00      152       12        0      164
   15 118    42    11665     2375     0.75     0.00      237       44     0.03     0.00      161       12        0      173
   15 119    43    12715     2563     0.39     0.00      249       46     0.03     0.00      170       13        0      183
   15 120    44    11981     2219     0.57     0.00      261       49     0.03     0.00      178       13        0      191
   15 121    45    11496     2188     0.55     0.00      273       51     0.03     0.00      186       13        0      200
   15 122    46     7867     1938     0.18     0.00      281       53     0.03     0.00      194       13        0      207
   15 123    47     6594     1531     0.26     0.00      287       54     0.03     0.00      199       13        0      213
   15 124    48     7754     2094     0.15     0.00      295       56     0.03     0.00      207       13        0      220
   15 125    49    11931     2844     0.29     0.00      307       59     0.03     0.00      217       14        0      231
   15 126    50    14639     3719     0.24     0.00      322       63     0.03     0.00      231       14        0      245
   15 127    51    14216     4250     0.15     0.00      336       67     0.03     0.00      247       14        0      260
   15 128    52    16082     4438     0.26     0.00      352       72     0.03     0.00      263       14        0      277
   15 129    53    16438     4719     0.31     0.00      368       76     0.03     0.00      280       14        0      294
   15 130    54    14996     4406     0.23     0.00      383       81     0.03     0.00      296       14        0      310
   15 131    55    12874     4031     0.28     0.00      396       85     0.03     0.00      311       14        0      325
   15 132    56    13023     4344     0.27     0.00      409       89     0.03     0.00      327       14        0      341
   15 133    57    13871     5031     0.27     0.00      423       94     0.03     0.00      346       15        0      360
   15 134    58    14750     5188     0.22     0.00      438       99     0.03     0.00      365       15        0      379
   15 135    59    14478     5406     0.27     0.00      452      105     0.03     0.00      384       15        0      399
   15 136    60    13686     5313     0.28     0.00      466      110     0.03     0.00      404       15        0      419
   15 137    61    13194     5188     0.28     0.00      479      115     0.03     0.00      423       15        0      438
   15 138    62    11892     4844     0.28     0.00      491      120     0.03     0.00      441       15        0      456
   15 139    63    11109     4563     0.29     0.00      502      125     0.03     0.00      457       15        0      473
   15 140    64    11704     4281     0.11     0.00      514      129     0.03     0.00      473       15        0      489
   15 141    65    10496     4125     0.09     0.00      525      133     0.03     0.00      488       15        0      504
   15 142    66    10073     3781     0.15     0.00      535      137     0.03     0.00      502       15        0      518
   15 143    67     9326     3281     0.23     0.00      544      140     0.03     0.00      514       16        0      530
   15 144    68     7882     2969     0.19     0.00      552      143     0.03     0.00      525       16        0      541
   15 145    69     7422     2688     0.22     0.00      559      146     0.03     0.00      535       16        0      551
   15 146    70     8890     3438     0.29     0.00      568      149     0.03     0.00      548       16        0      563
   15 147    71     9423     3688     0.33     0.00      578      153     0.03     0.00      561       16        0      577
   15 148    72     9297     3563     0.33     0.00      587      156     0.03     0.00      574       16        0      590
   15 149    73     9427     3750     0.33     0.00      596      160     0.03     0.00      588       16        0      604
   15 150    74    10267     4156     0.33     0.00      607      164     0.04     0.00      603       16        0      620
   15 151    75    10338     4250     0.33     0.00      617      169     0.04     0.00      619       17        0      635
   15 152    76    11220     4656     0.32     0.00      628      173     0.04     0.00      636       17        0      653
   15 153    77    14184     5563     1.32     0.00      642      179     0.04     0.00      656       17        0      674
   15 154    78    15709     6469     2.00     0.00      658      185     0.04     0.00      680       18        0      698
   15 155    79    16416     7125     2.35     0.00      674      192     0.04     0.00      706       19        0      726
   15 156    80    16722     7688     2.49     0.00      691      200     0.04     0.00      734       21        0      755
   15 157    81    17261     8469     2.52     0.00      708      209     0.05     0.00      766       22        0      787
   15 158    82    18395     8781     2.19     0.00      727      217     0.05     0.00      798       23        0      821
   15 159    83    17521     8813     1.96     0.00      744      226     0.05     0.00      830       24        0      854
   15 160    84    19449     8219     0.59     0.00      764      234     0.05     0.00      860       24        0      884
   15 161    85    17896     7375     1.05     0.00      782      242     0.05     0.00      887       24        0      912
   15 162    86    15785     6781     1.19     0.00      797      249     0.05     0.00      912       25        0      937
   15 163    87    14612     6375     1.22     0.00      812      255     0.05     0.00      936       26        0      961
   15 164    88    13987     6469     1.06     0.00      826      261     0.06     0.00      959       26        0      985
   15 165    89    14481     6719     0.45     0.00      841      268     0.06     0.00      984       26        0     1010
   15 166    90    15534     7875     0.35     0.00      856      276     0.06     0.00     1013       26        0     1039
   15 167    91    15691     8125     0.32     0.00      872      284     0.06     0.00     1043       27        0     1069
   15 168    92    15851     7656     0.52     0.00      888      292     0.06     0.00     1071       27        0     1098
   15 169    93    14752     7000     0.66     0.00      902      299     0.06     0.00     1097       27        0     1124
   15 170    94    12514     6375     0.23     0.00      915      305     0.06     0.00     1120       27        0     1147
   15 171    95    11159     5531     0.41     0.00      926      311     0.06     0.00     1140       27        0     1168
   15 172    96    10675     5250     0.51     0.00      937      316     0.06     0.00     1159       28        0     1187
   15 173    97    10215     5063     0.53     0.00      947      321     0.06     0.00     1178       28        0     1206
   15 174    98     9962     5250     0.17     0.00      957      326     0.06     0.00     1197       28        0     1225
   15 175    99     9909     5156     0.23     0.00      967      331     0.06     0.00     1216       28        0     1244
   15 176   100    10377     5344     0.37     0.00      977      337     0.06     0.00     1236       28        0     1264
   15 177   101    10830     5531     0.45     0.00      988      342     0.06     0.00     1256       29        0     1285
   15 178   102    11291     6000     0.41     0.00      999      348     0.06     0.00     1278       29        0     1307
   15 179   103    11355     6375     0.38     0.00     1011      355     0.06     0.00     1302       29        0     1330
   15 180   104    12164     6938     0.36     0.00     1023      362     0.06     0.00     1327       29        0     1356
   15 181   105    12841     7625     0.34     0.00     1036      369     0.06     0.00     1355       29        0     1384
   15 182   106    13698     8438     0.33     0.00     1049      378     0.06     0.00     1386       29        0     1415
   15 183   107    13628     8781     0.33     0.00     1063      386     0.06     0.00     1418       30        0     1448
   15 184   108    13474     8969     1.91     0.00     1076      395     0.07     0.00     1451       30        0     1482
   15 185   109    13407     9125     2.90     0.00     1090      405     0.07     0.00     1485       32        0     1516
   15 186   110    13344     9406     3.41     0.00     1103      414     0.07     0.00     1519       33        0     1553
   15 187   111    13034     9406     3.49     0.00     1116      423     0.07     0.00     1554       35        0     1589
   15 188   112    12446     9188     3.03     0.00     1129      433     0.08     0.00     1587       36        0     1624
   15 189   113    13704     9438     2.35     0.00     1142      442     0.08     0.00     1622       38        0     1660
   15 190   114    13768     8719     1.93     0.00     1156      451     0.08     0.00     1654       38        0     1692
   15 191   115    11872     7688     1.73     0.00     1168      458     0.08     0.00     1682       39        0     1721
   15 192   116     9931     6719     1.49     0.00     1178      465     0.09     0.00     1707       40        0     1747
   15 193   117     8612     6094     1.31     0.00     1187      471     0.09     0.00     1729       41        0     1770
   15 194   118     7204     5344     1.18     0.00     1194      477     0.09     0.00     1749       41        0     1790
   15 195   119     7042     5313     1.01     0.00     1201      482     0.09     0.00     1768       42        0     1810
   15 196   120     7471     5688     0.89     0.00     1208      488     0.09     0.00     1789       42        0     1831
   15 197   121     7769     6063     0.80     0.00     1216      494     0.09     0.00     1811       42        0     1854
   15 198   122     7676     6156     0.71     0.00     1224      500     0.09     0.00     1834       43        0     1877
   15 199   123     7410     6094     0.64     0.00     1231      506     0.09     0.00     1856       43        0     1899
   15 200   124     7152     6031     0.57     0.00     1238      512     0.09     0.00     1879       43        0     1922
   15 201   125     6907     5969     0.52     0.00     1245      518     0.09     0.00     1900       44        0     1944
   15 202   126     6678     5875     0.48     0.00     1252      524     0.09     0.00     1922       44        0     1966
   15 203   127     6509     5813     0.44     0.00     1258      530     0.09     0.00     1943       44        0     1987
   15 204   128     6132     5563     0.41     0.00     1265      535     0.09     0.00     1964       44        0     2008
   15 205   129     6062     5438     0.37     0.00     1271      541     0.09     0.00     1984       44        0     2028
   15 206   130     5868     5219     0.36     0.00     1276      546     0.10     0.00     2003       44        0     2047
   15 207   131     5383     4969     0.34     0.00     1282      551     0.10     0.00     2021       45        0     2066
   15 208   132     4830     4438     0.33     0.00     1287      555     0.10     0.00     2037       45        0     2082
   15 209   133     5114     4281     0.29     0.00     1292      559     0.10     0.00     2053       45        0     2098
   15 210   134     4759     4063     0.30     0.00     1297      564     0.10     0.00     2068       45        0     2113
   15 211   135     4332     3688     0.30     0.00     1301      567     0.10     0.00     2082       45        0     2127
   15 212   136     3874     3375     0.30     0.00     1305      571     0.10     0.00     2094       45        0     2139
   15 213   137     3842     3469     0.30     0.00     1309      574     0.10     0.00     2107       46        0     2152
   15 214   138     3732     3375     0.30     0.00     1312      577     0.10     0.00     2119       46        0     2165
   15 215   139     3774     3438     0.30     0.00     1316      581     0.10     0.00     2132       46        0     2177
   15 216   140     4010     3688     0.30     0.00     1320      585     0.10     0.00     2145       46        0     2191
   15 217   141     4373     4063     0.30     0.00     1324      589     0.10     0.00     2160       46        0     2206
   15 218   142     4602     4313     0.30     0.00     1329      593     0.10     0.00     2176       46        0     2222
   15 219   143     4960     4688     0.30     0.00     1334      598     0.10     0.00     2193       46        0     2240
   15 220   144     5284     5000     0.30     0.00     1339      603     0.10     0.00     2212       46        0     2258
   15 221   145     5692     5219     0.29     0.00     1345      608     0.10     0.00     2231       47        0     2277
   15 222   146     5789     5406     0.29     0.00     1351      613     0.10     0.00     2251       47        0     2297
   15 223   147     5853     5531     0.29     0.00     1357      619     0.10     0.00     2271       47        0     2318
   15 224   148     5861     5500     0.29     0.00     1362      624     0.10     0.00     2291       47        0     2338
   15 225   149     5806     5500     0.30     0.00     1368      630     0.10     0.00     2311       47        0     2358
   15 226   150     5753     5469     0.30     0.00     1374      635     0.10     0.00     2331       47        0     2379
   15 227   151     6814     5688     0.26     0.00     1381      641     0.10     0.00     2352       47        0     2400
   15 228   152     6468     5500     0.27     0.00     1387      646     0.10     0.00     2372       48        0     2420
   15 229   153     7250     5250     0.26     0.00     1395      652     0.10     0.00     2392       48        0     2439
   15 230   154     6587     4844     0.18     0.00     1401      657     0.10     0.00     2409       48        0     2457
   15 231   155     6146     4438     0.29     0.00     1407      661     0.10     0.00     2426       48        0     2474
   15 232   156     5350     4000     0.30     0.00     1413      665     0.10     0.00     2440       48        0     2488
   15 233   157     4932     3813     0.30     0.00     1418      669     0.10     0.00     2454       48        0     2503
   15 234   158     4721     3656     0.30     0.00     1422      672     0.10     0.00     2468       48        0     2516
   15 235   159     4777     3844     0.31     0.00     1427      676     0.10     0.00     2482       48        0     2530
   15 236   160     5215     4094     0.31     0.00     1432      680     0.10     0.00     2497       49        0     2545
   15 237   161     8275     4719     0.13     0.00     1441      685     0.10     0.00     2514       49        0     2563

*DSSAT Cropping System Model Ver. 4.8.5.000 -release  FEB 02, 2026 11:46:55

*RUN   2        : 2                         WHAPS048 TUDU1501    2
 MODEL          : WHAPS048 - Wheat
 EXPERIMENT     : TUDU1501 WH
 DATA PATH      :
 TREATMENT  2   : 2                         WHAPS048
  
!               |---------- Daily (g/ha) ----------|------- Cumulative (kg/ha) --------|---- Cum CO2-equiv kg[CO2eq]/ha ---|
!               Soil CO2  Net CO2      N2O      CH4 Soil CO2  Net CO2      N2O      CH4  Net CO2      N2O      CH4    Total
!                g[C]/ha  g[C]/ha  g[N]/ha  g[C]/ha kg[C]/ha kg[C]/ha kg[N]/ha kg[C]/ha    CO2eq    CO2eq    CO2eq    CO2eq
@YEAR DOY   DAS   CO2GED   CO2END   N2OGED   CH4GED    CO2EC   CO2ENC    N2OEC    CH4EC    CCEQC    NCEQC    MCEQC    TCEQC
   15 077     1    12360     1656     0.01     0.00       12        2     0.00     0.00        6        0        0        6
   15 078     2    10581     1563     0.01     0.00       23        3     0.00     0.00       12        0        0       12
   15 079     3     8293     1313     0.01     0.00       31        5     0.00     0.00       17        0        0       17
   15 080     4     5921     1031     0.02     0.00       37        6     0.00     0.00       20        0        0       20
   15 081     5     3797      656     0.02     0.00       41        6     0.00     0.00       23        0        0       23
   15 082     6      821      281     0.02     0.00       42        7     0.00     0.00       24        0        0       24
   15 083     7      130        0     0.02     0.00       42        7     0.00     0.00       24        0        0       24
   15 084     8      146      125     0.03     0.00       42        7     0.00     0.00       24        0        0       24
   15 085     9      675      219     0.03     0.00       43        7     0.00     0.00       25        0        0       25
   15 086    10      786      219     0.03     0.00       44        7     0.00     0.00       26        0        0       26
   15 087    11     1747      406     0.03     0.00       45        7     0.00     0.00       27        0        0       28
   15 088    12     2843      656     0.03     0.00       48        8     0.00     0.00       30        0        0       30
   15 089    13     3811      813     0.04     0.00       52        9     0.00     0.00       33        0        0       33
   15 090    14     3354      531     0.03     0.00       55        9     0.00     0.00       35        0        0       35
   15 091    15     3994      625     0.03     0.00       59       10     0.00     0.00       37        0        0       37
   15 092    16     2685      500     0.02     0.00       62       11     0.00     0.00       39        0        0       39
   15 093    17     1332      281     0.02     0.00       63       11     0.00     0.00       40        0        0       40
   15 094    18       74        0     0.04     0.00       63       11     0.00     0.00       40        0        0       40
   15 095    19       14       31     0.03     0.00       63       11     0.00     0.00       40        0        0       40
   15 096    20        0        0     0.05     0.00       63       11     0.00     0.00       40        0        0       40
   15 097    21        0        0     0.06     0.00       63       11     0.00     0.00       40        0        0       40
   15 098    22        0        0     0.06     0.00       63       11     0.00     0.00       40        0        0       40
   15 099    23        0        0     0.38     0.00       63       11     0.00     0.00       40        0        0       40
   15 100    24       72       31     0.67     0.00       63       11     0.00     0.00       40        1        0       41
   15 101    25     3154      531     0.94     0.00       67       11     0.00     0.00       42        1        0       43
   15 102    26     6962     1219     1.20     0.00       74       13     0.00     0.00       47        2        0       48
   15 103    27    10143     1813     1.43     0.00       84       15     0.01     0.00       53        2        0       56
   15 104    28    11738     2219     1.59     0.00       95       17     0.01     0.00       61        3        0       65
   15 105    29    11880     2375     1.66     0.00      107       19     0.01     0.00       70        4        0       74
   15 106    30    12524     2750     1.67     0.00      120       22     0.01     0.00       80        5        0       85
   15 107    31    13191     3094     1.64     0.00      133       25     0.01     0.00       92        6        0       97
   15 108    32    15844     2656     0.48     0.00      149       28     0.01     0.00      101        6        0      107
   15 109    33    13878     1938     1.07     0.00      163       30     0.01     0.00      108        6        0      115
   15 110    34    11581     1625     1.43     0.00      174       31     0.01     0.00      114        7        0      121
   15 111    35     8542     1313     1.30     0.00      183       32     0.02     0.00      119        8        0      127
   15 112    36     6139     1094     1.18     0.00      189       34     0.02     0.00      123        8        0      131
   15 113    37     5870     1063     1.07     0.00      195       35     0.02     0.00      127        9        0      136
   15 114    38     5982     1313     0.97     0.00      201       36     0.02     0.00      132        9        0      141
   15 115    39     6904     1469     0.89     0.00      208       37     0.02     0.00      137        9        0      147
   15 116    40     7850     1813     0.78     0.00      216       39     0.02     0.00      144       10        0      154
   15 117    41     9474     2250     0.70     0.00      225       41     0.02     0.00      152       10        0      162
   15 118    42    11648     2375     0.59     0.00      237       44     0.02     0.00      161       10        0      171
   15 119    43    12691     2563     0.31     0.00      249       46     0.02     0.00      170       11        0      181
   15 120    44    11961     2219     0.45     0.00      261       49     0.02     0.00      178       11        0      189
   15 121    45    11475     2219     0.44     0.00      273       51     0.02     0.00      187       11        0      198
   15 122    46     7888     1906     0.15     0.00      281       53     0.02     0.00      194       11        0      205
   15 123    47     6617     1531     0.21     0.00      287       54     0.02     0.00      199       11        0      210
   15 124    48     7863     2063     0.13     0.00      295       56     0.02     0.00      207       11        0      218
   15 125    49    12076     2813     0.25     0.00      307       59     0.02     0.00      217       11        0      228
   15 126    50    14752     3688     0.20     0.00      322       63     0.02     0.00      231       11        0      242
   15 127    51    14258     4281     0.13     0.00      336       67     0.02     0.00      246       11        0      258
   15 128    52    16117     4406     0.23     0.00      352       72     0.02     0.00      263       12        0      274
   15 129    53    16702     4625     0.28     0.00      369       76     0.03     0.00      279       12        0      291
   15 130    54    15051     4406     0.21     0.00      384       81     0.03     0.00      296       12        0      307
   15 131    55    12950     4000     0.27     0.00      397       85     0.03     0.00      310       12        0      322
   15 132    56    13048     4375     0.27     0.00      410       89     0.03     0.00      326       12        0      338
   15 133    57    13899     5031     0.27     0.00      424       94     0.03     0.00      345       12        0      357
   15 134    58    14773     5156     0.23     0.00      439       99     0.03     0.00      364       12        0      376
   15 135    59    14503     5406     0.29     0.00      453      105     0.03     0.00      384       12        0      396
   15 136    60    13697     5281     0.30     0.00      467      110     0.03     0.00      403       13        0      416
   15 137    61    13205     5188     0.31     0.00      480      115     0.03     0.00      422       13        0      435
   15 138    62    11900     4844     0.32     0.00      492      120     0.03     0.00      440       13        0      453
   15 139    63    11125     4563     0.32     0.00      503      124     0.03     0.00      457       13        0      470
   15 140    64    11715     4219     0.12     0.00      515      129     0.03     0.00      472       13        0      485
   15 141    65    10487     4156     0.11     0.00      525      133     0.03     0.00      487       13        0      500
   15 142    66    10063     3781     0.17     0.00      536      137     0.03     0.00      501       13        0      514
   15 143    67     9318     3281     0.26     0.00      545      140     0.03     0.00      513       13        0      527
   15 144    68     7941     2938     0.21     0.00      553      143     0.03     0.00      524       13        0      537
   15 145    69     7465     2719     0.25     0.00      560      146     0.03     0.00      534       14        0      548
   15 146    70     8936     3406     0.33     0.00      569      149     0.03     0.00      546       14        0      560
   15 147    71     9442     3688     0.37     0.00      579      153     0.03     0.00      560       14        0      574
   15 148    72     9307     3563     0.38     0.00      588      156     0.03     0.00      573       14        0      587
   15 149    73     9436     3750     0.37     0.00      597      160     0.03     0.00      587       14        0      601
   15 150    74    10272     4156     0.37     0.00      608      164     0.03     0.00      602       14        0      616
   15 151    75    10343     4250     0.37     0.00      618      168     0.03     0.00      618       15        0      632
   15 152    76    11242     4656     0.36     0.00      629      173     0.03     0.00      635       15        0      650
   15 153    77    14087     5594     1.22     0.00      643      179     0.03     0.00      655       15        0      671
   15 154    78    15610     6469     1.74     0.00      659      185     0.03     0.00      679       16        0      695
   15 155    79    16334     7094     1.99     0.00      675      192     0.04     0.00      705       17        0      722
   15 156    80    16661     7719     2.08     0.00      692      200     0.04     0.00      733       18        0      751
   15 157    81    17222     8469     2.08     0.00      709      208     0.04     0.00      765       19        0      784
   15 158    82    18370     8813     1.80     0.00      728      217     0.04     0.00      797       20        0      817
   15 159    83    17519     8781     1.62     0.00      745      226     0.04     0.00      829       21        0      850
   15 160    84    19397     8219     0.49     0.00      764      234     0.04     0.00      859       21        0      880
   15 161    85    17856     7375     0.88     0.00      782      242     0.05     0.00      886       21        0      908
   15 162    86    15763     6750     1.01     0.00      798      248     0.05     0.00      911       22        0      933
   15 163    87    14588     6406     1.04     0.00      813      255     0.05     0.00      935       22        0      957
   15 164    88    13967     6438     0.92     0.00      827      261     0.05     0.00      958       23        0      981
   15 165    89    14450     6719     0.39     0.00      841      268     0.05     0.00      983       23        0     1006
   15 166    90    15500     7875     0.31     0.00      857      276     0.05     0.00     1012       23        0     1035
   15 167    91    15660     8094     0.28     0.00      872      284     0.05     0.00     1041       23        0     1065
   15 168    92    15832     7688     0.46     0.00      888      291     0.05     0.00     1070       23        0     1093
   15 169    93    14736     7000     0.59     0.00      903      298     0.05     0.00     1095       24        0     1119
   15 170    94    12503     6375     0.21     0.00      915      305     0.05     0.00     1119       24        0     1142
   15 171    95    11148     5531     0.38     0.00      926      310     0.05     0.00     1139       24        0     1163
   15 172    96    10664     5250     0.47     0.00      937      316     0.05     0.00     1158       24        0     1182
   15 173    97    10204     5063     0.49     0.00      947      321     0.05     0.00     1177       24        0     1201
   15 174    98     9953     5250     0.16     0.00      957      326     0.05     0.00     1196       24        0     1221
   15 175    99     9900     5188     0.22     0.00      967      331     0.05     0.00     1215       24        0     1240
   15 176   100    10368     5344     0.35     0.00      978      336     0.05     0.00     1235       25        0     1259
   15 177   101    10820     5531     0.43     0.00      988      342     0.05     0.00     1255       25        0     1280
   15 178   102    11284     5969     0.40     0.00     1000      348     0.05     0.00     1277       25        0     1302
   15 179   103    11350     6375     0.37     0.00     1011      354     0.05     0.00     1300       25        0     1326
   15 180   104    12169     6969     0.35     0.00     1023      361     0.05     0.00     1326       25        0     1351
   15 181   105    12855     7656     0.34     0.00     1036      369     0.05     0.00     1354       26        0     1380
   15 182   106    13723     8438     0.33     0.00     1050      377     0.05     0.00     1385       26        0     1411
   15 183   107    13645     8750     0.33     0.00     1063      386     0.06     0.00     1417       26        0     1443
   15 184   108    13475     8969     1.62     0.00     1077      395     0.06     0.00     1450       27        0     1477
   15 185   109    13394     9125     2.39     0.00     1090      404     0.06     0.00     1484       28        0     1511
   15 186   110    13321     9344     2.80     0.00     1104      414     0.06     0.00     1518       29        0     1547
   15 187   111    13002     9375     2.96     0.00     1117      423     0.06     0.00     1552       30        0     1583
   15 188   112    12407     9156     2.91     0.00     1129      432     0.07     0.00     1586       32        0     1618
   15 189   113    13650     9406     2.59     0.00     1143      442     0.07     0.00     1620       33        0     1653
   15 190   114    13692     8688     2.27     0.00     1156      450     0.07     0.00     1652       34        0     1686
   15 191   115    11816     7656     2.13     0.00     1168      458     0.07     0.00     1680       35        0     1715
   15 192   116     9891     6656     1.88     0.00     1178      465     0.08     0.00     1705       36        0     1741
   15 193   117     8586     6094     1.69     0.00     1187      471     0.08     0.00     1727       37        0     1764
   15 194   118     7167     5344     1.54     0.00     1194      476     0.08     0.00     1747       37        0     1784
   15 195   119     7002     5219     1.32     0.00     1201      481     0.08     0.00     1766       38        0     1804
   15 196   120     7433     5688     1.18     0.00     1208      487     0.08     0.00     1787       39        0     1825
   15 197   121     7721     6031     1.05     0.00     1216      493     0.08     0.00     1809       39        0     1848
   15 198   122     7620     6125     0.94     0.00     1224      499     0.08     0.00     1831       40        0     1871
   15 199   123     7345     6063     0.84     0.00     1231      505     0.09     0.00     1854       40        0     1894
   15 200   124     7083     6000     0.75     0.00     1238      511     0.09     0.00     1876       40        0     1916
   15 201   125     6818     5844     0.67     0.00     1245      517     0.09     0.00     1897       41        0     1938
   15 202   126     6589     5813     0.61     0.00     1251      523     0.09     0.00     1918       41        0     1959
   15 203   127     6418     5719     0.55     0.00     1258      528     0.09     0.00     1939       41        0     1981
   15 204   128     6048     5531     0.51     0.00     1264      534     0.09     0.00     1960       41        0     2001
   15 205   129     5991     5313     0.45     0.00     1270      539     0.09     0.00     1979       42        0     2021
   15 206   130     5799     5281     0.43     0.00     1276      545     0.09     0.00     1999       42        0     2040
   15 207   131     5323     4844     0.41     0.00     1281      549     0.09     0.00     2016       42        0     2058
   15 208   132     4776     4469     0.39     0.00     1286      554     0.09     0.00     2033       42        0     2075
   15 209   133     5060     4188     0.34     0.00     1291      558     0.09     0.00     2048       42        0     2091
   15 210   134     4708     3969     0.34     0.00     1296      562     0.09     0.00     2063       42        0     2105
   15 211   135     4285     3656     0.33     0.00     1300      566     0.09     0.00     2076       43        0     2119
   15 212   136     3832     3406     0.33     0.00     1304      569     0.09     0.00     2089       43        0     2131
   15 213   137     3800     3375     0.33     0.00     1307      573     0.09     0.00     2101       43        0     2144
   15 214   138     3691     3344     0.33     0.00     1311      576     0.09     0.00     2113       43        0     2156
   15 215   139     3732     3406     0.32     0.00     1315      579     0.09     0.00     2126       43        0     2169
   15 216   140     3965     3719     0.32     0.00     1319      583     0.09     0.00     2139       43        0     2183
   15 217   141     4324     3969     0.31     0.00     1323      587     0.09     0.00     2154       44        0     2198
   15 218   142     4550     4281     0.31     0.00     1328      591     0.09     0.00     2170       44        0     2213
   15 219   143     4903     4656     0.31     0.00     1333      596     0.09     0.00     2187       44        0     2231
   15 220   144     5223     4938     0.31     0.00     1338      601     0.09     0.00     2205       44        0     2249
   15 221   145     5626     5219     0.30     0.00     1343      606     0.09     0.00     2224       44        0     2268
   15 222   146     5722     5344     0.30     0.00     1349      611     0.09     0.00     2244       44        0     2288
   15 223   147     5785     5406     0.30     0.00     1355      617     0.09     0.00     2264       44        0     2308
   15 224   148     5793     5500     0.31     0.00     1361      622     0.10     0.00     2284       45        0     2328
   15 225   149     5738     5438     0.31     0.00     1367      628     0.10     0.00     2304       45        0     2348
   15 226   150     5686     5406     0.31     0.00     1372      633     0.10     0.00     2324       45        0     2368
   15 227   151     6741     5656     0.27     0.00     1379      639     0.10     0.00     2344       45        0     2389
   15 228   152     6399     5438     0.29     0.00     1385      644     0.10     0.00     2364       45        0     2409
   15 229   153     7178     5188     0.27     0.00     1393      649     0.10     0.00     2383       45        0     2429
   15 230   154     6522     4844     0.19     0.00     1399      654     0.10     0.00     2401       45        0     2446
   15 231   155     6087     4375     0.30     0.00     1405      659     0.10     0.00     2417       45        0     2463
   15 232   156     5299     3969     0.31     0.00     1410      663     0.10     0.00     2432       46        0     2477
   15 233   157     4884     3719     0.31     0.00     1415      666     0.10     0.00     2445       46        0     2491
   15 234   158     4675     3719     0.32     0.00     1420      670     0.10     0.00     2459       46        0     2505
   15 235   159     4730     3813     0.32     0.00     1425      674     0.10     0.00     2473       46        0     2519
   15 236   160     5164     4000     0.32     0.00     1430      678     0.10     0.00     2488       46        0     2534
   15 237   161     8221     4719     0.14     0.00     1438      683     0.10     0.00     2505       46        0     2551

*DSSAT Cropping System Model Ver. 4.8.5.000 -release  FEB 02, 2026 11:46:55

*RUN   3        : 3                         WHAPS048 TUDU1501    3
 MODEL          : WHAPS048 - Wheat
 EXPERIMENT     : TUDU1501 WH
 DATA PATH      :
 TREATMENT  3   : 3                         WHAPS048
  
!               |---------- Daily (g/ha) ----------|------- Cumulative (kg/ha) --------|---- Cum CO2-equiv kg[CO2eq]/ha ---|
!               Soil CO2  Net CO2      N2O      CH4 Soil CO2  Net CO2      N2O      CH4  Net CO2      N2O      CH4    Total
!                g[C]/ha  g[C]/ha  g[N]/ha  g[C]/ha kg[C]/ha kg[C]/ha kg[N]/ha kg[C]/ha    CO2eq    CO2eq    CO2eq    CO2eq
@YEAR DOY   DAS   CO2GED   CO2END   N2OGED   CH4GED    CO2EC   CO2ENC    N2OEC    CH4EC    CCEQC    NCEQC    MCEQC    TCEQC
   15 077     1    12360     1656     0.01     0.00       12        2     0.00     0.00        6        0        0        6
   15 078     2    10581     1563     0.01     0.00       23        3     0.00     0.00       12        0        0       12
   15 079     3     8293     1313     0.01     0.00       31        5     0.00     0.00       17        0        0       17
   15 080     4     5921     1031     0.02     0.00       37        6     0.00     0.00       20        0        0       20
   15 081     5     3797      656     0.02     0.00       41        6     0.00     0.00       23        0        0       23
   15 082     6      821      281     0.02     0.00       42        7     0.00     0.00       24        0        0       24
   15 083     7      130        0     0.02     0.00       42        7     0.00     0.00       24        0        0       24
   15 084     8      146      125     0.03     0.00       42        7     0.00     0.00       24        0        0       24
   15 085     9      675      219     0.03     0.00       43        7     0.00     0.00       25        0        0       25
   15 086    10      786      219     0.03     0.00       44        7     0.00     0.00       26        0        0       26
   15 087    11     1747      406     0.03     0.00       45        7     0.00     0.00       27        0        0       28
   15 088    12     2843      656     0.03     0.00       48        8     0.00     0.00       30        0        0       30
   15 089    13     3811      813     0.04     0.00       52        9     0.00     0.00       33        0        0       33
   15 090    14     3354      531     0.03     0.00       55        9     0.00     0.00       35        0        0       35
   15 091    15     3994      625     0.03     0.00       59       10     0.00     0.00       37        0        0       37
   15 092    16     2685      500     0.02     0.00       62       11     0.00     0.00       39        0        0       39
   15 093    17     1332      281     0.02     0.00       63       11     0.00     0.00       40        0        0       40
   15 094    18       74        0     0.04     0.00       63       11     0.00     0.00       40        0        0       40
   15 095    19       14       31     0.03     0.00       63       11     0.00     0.00       40        0        0       40
   15 096    20        0        0     0.05     0.00       63       11     0.00     0.00       40        0        0       40
   15 097    21        0        0     0.06     0.00       63       11     0.00     0.00       40        0        0       40
   15 098    22        0        0     0.06     0.00       63       11     0.00     0.00       40        0        0       40
   15 099    23        0        0     0.06     0.00       63       11     0.00     0.00       40        0        0       40
   15 100    24       72       31     0.06     0.00       63       11     0.00     0.00       40        0        0       40
   15 101    25     3115      531     0.06     0.00       67       11     0.00     0.00       42        0        0       42
   15 102    26     6836     1250     0.06     0.00       73       13     0.00     0.00       47        0        0       47
   15 103    27     9923     1875     0.06     0.00       83       15     0.00     0.00       54        0        0       54
   15 104    28    11461     2281     0.06     0.00       95       17     0.00     0.00       62        0        0       62
   15 105    29    11625     2469     0.07     0.00      106       19     0.00     0.00       71        0        0       71
   15 106    30    12303     2813     0.07     0.00      119       22     0.00     0.00       81        1        0       82
   15 107    31    13040     3094     0.07     0.00      132       25     0.00     0.00       93        1        0       93
   15 108    32    14284     3031     0.02     0.00      146       28     0.00     0.00      104        1        0      104
   15 109    33    12376     2344     0.05     0.00      158       31     0.00     0.00      112        1        0      113
   15 110    34    10271     1938     0.07     0.00      169       33     0.00     0.00      120        1        0      120
   15 111    35     7626     1531     0.07     0.00      176       34     0.00     0.00      125        1        0      126
   15 112    36     5549     1250     0.07     0.00      182       35     0.00     0.00      130        1        0      130
   15 113    37     5349     1219     0.07     0.00      187       37     0.00     0.00      134        1        0      135
   15 114    38     5517     1406     0.08     0.00      193       38     0.00     0.00      139        1        0      140
   15 115    39     6403     1625     0.08     0.00      199       40     0.00     0.00      145        1        0      146
   15 116    40     7346     1969     0.08     0.00      206       42     0.00     0.00      153        1        0      153
   15 117    41     8932     2375     0.08     0.00      215       44     0.00     0.00      161        1        0      162
   15 118    42    10833     2625     0.08     0.00      226       47     0.00     0.00      171        1        0      172
   15 119    43    11657     2844     0.04     0.00      238       49     0.00     0.00      181        1        0      182
   15 120    44    10819     2469     0.08     0.00      249       52     0.00     0.00      190        1        0      191
   15 121    45    10463     2469     0.09     0.00      259       54     0.00     0.00      199        1        0      200
   15 122    46     7094     2125     0.03     0.00      266       56     0.00     0.00      207        1        0      208
   15 123    47     6003     1688     0.05     0.00      272       58     0.00     0.00      213        1        0      214
   15 124    48     7335     2188     0.03     0.00      280       60     0.00     0.00      221        1        0      223
   15 125    49    11093     3063     0.07     0.00      291       63     0.00     0.00      233        1        0      234
   15 126    50    13607     3969     0.06     0.00      304       67     0.00     0.00      247        1        0      248
   15 127    51    13444     4500     0.04     0.00      318       72     0.00     0.00      264        1        0      265
   15 128    52    15307     4594     0.08     0.00      333       76     0.00     0.00      281        1        0      282
   15 129    53    16076     4813     0.10     0.00      349       81     0.00     0.00      298        1        0      300
   15 130    54    14702     4500     0.07     0.00      364       86     0.00     0.00      315        1        0      316
   15 131    55    13250     3906     0.11     0.00      377       90     0.00     0.00      329        1        0      330
   15 132    56    13414     4281     0.12     0.00      390       94     0.00     0.00      345        1        0      346
   15 133    57    14639     4844     0.12     0.00      405       99     0.00     0.00      363        1        0      364
   15 134    58    15554     4969     0.09     0.00      421      104     0.00     0.00      381        1        0      382
   15 135    59    15704     5125     0.14     0.00      436      109     0.00     0.00      400        2        0      401
   15 136    60    14655     5063     0.15     0.00      451      114     0.00     0.00      418        2        0      420
   15 137    61    14099     4969     0.15     0.00      465      119     0.00     0.00      437        2        0      438
   15 138    62    12959     4656     0.16     0.00      478      124     0.00     0.00      454        2        0      455
   15 139    63    12277     4313     0.17     0.00      490      128     0.00     0.00      469        2        0      471
   15 140    64    12034     4250     0.06     0.00      502      132     0.00     0.00      485        2        0      487
   15 141    65    10652     4094     0.05     0.00      513      136     0.00     0.00      500        2        0      502
   15 142    66    10232     3719     0.09     0.00      523      140     0.00     0.00      514        2        0      516
   15 143    67     9505     3250     0.14     0.00      533      143     0.00     0.00      526        2        0      528
   15 144    68     8193     2844     0.12     0.00      541      146     0.00     0.00      536        2        0      538
   15 145    69     7625     2719     0.14     0.00      549      149     0.00     0.00      546        2        0      548
   15 146    70     9393     3250     0.19     0.00      558      152     0.00     0.00      558        2        0      560
   15 147    71     9805     3594     0.21     0.00      568      156     0.00     0.00      571        2        0      573
   15 148    72     9546     3594     0.21     0.00      577      159     0.01     0.00      584        2        0      587
   15 149    73     9695     3594     0.22     0.00      587      163     0.01     0.00      598        2        0      600
   15 150    74    10694     4031     0.22     0.00      598      167     0.01     0.00      612        3        0      615
   15 151    75    10612     4156     0.23     0.00      608      171     0.01     0.00      628        3        0      630
   15 152    76    11313     4594     0.23     0.00      620      176     0.01     0.00      644        3        0      647
   15 153    77    13483     5625     0.24     0.00      633      181     0.01     0.00      665        3        0      668
   15 154    78    14919     6438     0.25     0.00      648      188     0.01     0.00      689        3        0      692
   15 155    79    15727     7031     0.26     0.00      664      195     0.01     0.00      715        3        0      718
   15 156    80    16380     7656     0.27     0.00      680      202     0.01     0.00      743        3        0      746
   15 157    81    17438     8344     0.27     0.00      698      211     0.01     0.00      773        3        0      777
   15 158    82    19026     8844     0.26     0.00      717      220     0.01     0.00      806        4        0      809
   15 159    83    18752     9063     0.27     0.00      735      229     0.01     0.00      839        4        0      843
   15 160    84    19845     8469     0.10     0.00      755      237     0.01     0.00      870        4        0      874
   15 161    85    18273     7594     0.19     0.00      774      245     0.01     0.00      898        4        0      902
   15 162    86    16407     6906     0.26     0.00      790      252     0.01     0.00      923        4        0      927
   15 163    87    15342     6406     0.31     0.00      805      258     0.01     0.00      947        4        0      951
   15 164    88    14706     6469     0.30     0.00      820      264     0.01     0.00      970        4        0      975
   15 165    89    15276     6969     0.13     0.00      835      271     0.01     0.00      996        4        0     1000
   15 166    90    16255     8125     0.12     0.00      852      280     0.01     0.00     1026        4        0     1030
   15 167    91    15965     8188     0.11     0.00      867      288     0.01     0.00     1056        4        0     1060
   15 168    92    16045     7688     0.21     0.00      884      295     0.01     0.00     1084        4        0     1089
   15 169    93    14938     6938     0.29     0.00      898      302     0.01     0.00     1110        5        0     1114
   15 170    94    12588     6375     0.10     0.00      911      309     0.01     0.00     1133        5        0     1138
   15 171    95    11277     5469     0.21     0.00      922      314     0.01     0.00     1153        5        0     1158
   15 172    96    10820     5250     0.29     0.00      933      319     0.01     0.00     1172        5        0     1177
   15 173    97    10345     5031     0.32     0.00      943      324     0.01     0.00     1191        5        0     1196
   15 174    98    10066     5188     0.11     0.00      954      330     0.01     0.00     1210        5        0     1215
   15 175    99    10020     5156     0.16     0.00      964      335     0.01     0.00     1229        5        0     1234
   15 176   100    10514     5313     0.28     0.00      974      340     0.01     0.00     1248        5        0     1254
   15 177   101    10919     5469     0.34     0.00      985      346     0.01     0.00     1268        5        0     1274
   15 178   102    11378     5969     0.33     0.00      996      352     0.01     0.00     1290        6        0     1296
   15 179   103    11418     6344     0.32     0.00     1008      358     0.01     0.00     1314        6        0     1319
   15 180   104    12168     6906     0.32     0.00     1020      365     0.01     0.00     1339        6        0     1345
   15 181   105    12835     7531     0.32     0.00     1033      372     0.01     0.00     1367        6        0     1373
   15 182   106    13807     8406     0.33     0.00     1047      381     0.01     0.00     1397        6        0     1404
   15 183   107    14099     8906     0.33     0.00     1061      390     0.01     0.00     1430        6        0     1436
   15 184   108    14349     9406     1.14     0.00     1075      399     0.01     0.00     1465        7        0     1471
   15 185   109    14714     9875     1.64     0.00     1090      409     0.02     0.00     1501        8        0     1508
   15 186   110    15021    10406     1.92     0.00     1105      419     0.02     0.00     1539        9        0     1548
   15 187   111    15059    10719     2.03     0.00     1120      430     0.02     0.00     1578       10        0     1588
   15 188   112    14718    10719     2.02     0.00     1135      441     0.02     0.00     1618       10        0     1628
   15 189   113    16340    11156     1.87     0.00     1151      452     0.02     0.00     1659       11        0     1670
   15 190   114    16577    10344     1.74     0.00     1167      462     0.03     0.00     1697       12        0     1709
   15 191   115    14211     9250     1.60     0.00     1182      472     0.03     0.00     1731       13        0     1743
   15 192   116    12009     8094     1.45     0.00     1194      480     0.03     0.00     1760       14        0     1774
   15 193   117    10756     7531     1.31     0.00     1204      487     0.03     0.00     1788       14        0     1802
   15 194   118     9438     6813     1.19     0.00     1214      494     0.03     0.00     1813       15        0     1828
   15 195   119     9387     6844     1.04     0.00     1223      501     0.03     0.00     1838       15        0     1853
   15 196   120    10059     7438     0.94     0.00     1233      508     0.03     0.00     1865       16        0     1881
   15 197   121    10664     8063     0.86     0.00     1244      516     0.03     0.00     1895       16        0     1911
   15 198   122    10787     8281     0.78     0.00     1255      525     0.04     0.00     1925       16        0     1942
   15 199   123    10793     8438     0.71     0.00     1266      533     0.04     0.00     1956       17        0     1973
   15 200   124    10785     8656     0.65     0.00     1276      542     0.04     0.00     1988       17        0     2005
   15 201   125    10670     8656     0.59     0.00     1287      550     0.04     0.00     2020       17        0     2037
   15 202   126    10537     8688     0.55     0.00     1298      559     0.04     0.00     2052       18        0     2069
   15 203   127    10469     8750     0.51     0.00     1308      568     0.04     0.00     2084       18        0     2102
   15 204   128    10136     8531     0.48     0.00     1318      576     0.04     0.00     2115       18        0     2133
   15 205   129    10015     8406     0.44     0.00     1328      585     0.04     0.00     2146       18        0     2164
   15 206   130     9784     8281     0.43     0.00     1338      593     0.04     0.00     2176       18        0     2195
   15 207   131     9064     7813     0.41     0.00     1347      601     0.04     0.00     2205       19        0     2224
   15 208   132     8032     6906     0.40     0.00     1355      608     0.04     0.00     2230       19        0     2249
   15 209   133     7943     6469     0.35     0.00     1363      614     0.04     0.00     2254       19        0     2273
   15 210   134     7574     6094     0.35     0.00     1371      620     0.04     0.00     2276       19        0     2296
   15 211   135     6873     5500     0.34     0.00     1377      626     0.04     0.00     2297       19        0     2316
   15 212   136     6246     5156     0.35     0.00     1384      631     0.04     0.00     2316       20        0     2335
   15 213   137     6107     5125     0.35     0.00     1390      636     0.04     0.00     2334       20        0     2354
   15 214   138     5833     4906     0.36     0.00     1396      641     0.04     0.00     2352       20        0     2372
   15 215   139     5873     5063     0.36     0.00     1402      646     0.04     0.00     2371       20        0     2391
   15 216   140     6200     5406     0.36     0.00     1408      651     0.04     0.00     2391       20        0     2411
   15 217   141     6694     5875     0.36     0.00     1414      657     0.04     0.00     2412       20        0     2433
   15 218   142     6958     6219     0.36     0.00     1421      664     0.04     0.00     2435       21        0     2456
   15 219   143     7366     6594     0.36     0.00     1429      670     0.04     0.00     2459       21        0     2480
   15 220   144     7701     6938     0.36     0.00     1436      677     0.04     0.00     2485       21        0     2506
   15 221   145     8275     7344     0.34     0.00     1445      684     0.04     0.00     2512       21        0     2533
   15 222   146     8383     7563     0.35     0.00     1453      692     0.05     0.00     2540       21        0     2561
   15 223   147     8476     7594     0.35     0.00     1462      700     0.05     0.00     2567       21        0     2589
   15 224   148     8422     7719     0.35     0.00     1470      707     0.05     0.00     2596       22        0     2617
   15 225   149     8263     7563     0.35     0.00     1478      715     0.05     0.00     2623       22        0     2645
   15 226   150     8145     7531     0.35     0.00     1486      722     0.05     0.00     2651       22        0     2673
   15 227   151     9367     7750     0.31     0.00     1496      730     0.05     0.00     2680       22        0     2702
   15 228   152     8894     7500     0.32     0.00     1505      738     0.05     0.00     2707       22        0     2729
   15 229   153     9485     7094     0.31     0.00     1514      745     0.05     0.00     2733       22        0     2755
   15 230   154     8697     6406     0.21     0.00     1523      751     0.05     0.00     2757       22        0     2779
   15 231   155     8033     5875     0.34     0.00     1531      757     0.05     0.00     2778       23        0     2801
   15 232   156     7010     5219     0.35     0.00     1538      762     0.05     0.00     2797       23        0     2820
   15 233   157     6473     5000     0.35     0.00     1544      767     0.05     0.00     2816       23        0     2839
   15 234   158     6221     4906     0.35     0.00     1551      772     0.05     0.00     2834       23        0     2857
   15 235   159     6335     5000     0.36     0.00     1557      777     0.05     0.00     2852       23        0     2875
   15 236   160     6852     5375     0.36     0.00     1564      783     0.05     0.00     2872       23        0     2895
   15 237   161     9673     6156     0.15     0.00     1573      789     0.05     0.00     2894       23        0     2918

*DSSAT Cropping System Model Ver. 4.8.5.000 -release  FEB 02, 2026 11:46:55

*RUN   4        : 4                         WHAPS048 TUDU1501    4
 MODEL          : WHAPS048 - Wheat
 EXPERIMENT     : TUDU1501 WH
 DATA PATH      :
 TREATMENT  4   : 4                         WHAPS048
  
!               |---------- Daily (g/ha) ----------|------- Cumulative (kg/ha) --------|---- Cum CO2-equiv kg[CO2eq]/ha ---|
!               Soil CO2  Net CO2      N2O      CH4 Soil CO2  Net CO2      N2O      CH4  Net CO2      N2O      CH4    Total
!                g[C]/ha  g[C]/ha  g[N]/ha  g[C]/ha kg[C]/ha kg[C]/ha kg[N]/ha kg[C]/ha    CO2eq    CO2eq    CO2eq    CO2eq
@YEAR DOY   DAS   CO2GED   CO2END   N2OGED   CH4GED    CO2EC   CO2ENC    N2OEC    CH4EC    CCEQC    NCEQC    MCEQC    TCEQC
   15 077     1    12360     1656     0.01     0.00       12        2     0.00     0.00        6        0        0        6
   15 078     2    10581     1563     0.01     0.00       23        3     0.00     0.00       12        0        0       12
   15 079     3     8293     1313     0.01     0.00       31        5     0.00     0.00       17        0        0       17
   15 080     4     5921     1031     0.02     0.00       37        6     0.00     0.00       20        0        0       20
   15 081     5     3797      656     0.02     0.00       41        6     0.00     0.00       23        0        0       23
   15 082     6      821      281     0.02     0.00       42        7     0.00     0.00       24        0        0       24
   15 083     7      130        0     0.02     0.00       42        7     0.00     0.00       24        0        0       24
   15 084     8      146      125     0.03     0.00       42        7     0.00     0.00       24        0        0       24
   15 085     9      675      219     0.03     0.00       43        7     0.00     0.00       25        0        0       25
   15 086    10      786      219     0.03     0.00       44        7     0.00     0.00       26        0        0       26
   15 087    11     1747      406     0.03     0.00       45        7     0.00     0.00       27        0        0       28
   15 088    12     2843      656     0.03     0.00       48        8     0.00     0.00       30        0        0       30
   15 089    13     3811      813     0.04     0.00       52        9     0.00     0.00       33        0        0       33
   15 090    14     3354      531     0.03     0.00       55        9     0.00     0.00       35        0        0       35
   15 091    15     3994      625     0.03     0.00       59       10     0.00     0.00       37        0        0       37
   15 092    16     2685      500     0.02     0.00       62       11     0.00     0.00       39        0        0       39
   15 093    17     1332      281     0.02     0.00       63       11     0.00     0.00       40        0        0       40
   15 094    18       74        0     0.04     0.00       63       11     0.00     0.00       40        0        0       40
   15 095    19       14       31     0.03     0.00       63       11     0.00     0.00       40        0        0       40
   15 096    20        0        0     0.05     0.00       63       11     0.00     0.00       40        0        0       40
   15 097    21        0        0     0.06     0.00       63       11     0.00     0.00       40        0        0       40
   15 098    22        0        0     0.06     0.00       63       11     0.00     0.00       40        0        0       40
   15 099    23        0        0     0.27     0.00       63       11     0.00     0.00       40        0        0       40
   15 100    24       72       31     0.46     0.00       63       11     0.00     0.00       40        1        0       41
   15 101    25     3154      531     0.64     0.00       67       11     0.00     0.00       42        1        0       43
   15 102    26     6962     1219     0.80     0.00       74       13     0.00     0.00       47        1        0       48
   15 103    27    10142     1813     0.95     0.00       84       15     0.00     0.00       53        2        0       55
   15 104    28    11737     2219     1.06     0.00       95       17     0.00     0.00       61        2        0       64
   15 105    29    11876     2375     1.10     0.00      107       19     0.01     0.00       70        3        0       73
   15 106    30    12520     2750     1.10     0.00      120       22     0.01     0.00       80        3        0       83
   15 107    31    13189     3094     1.08     0.00      133       25     0.01     0.00       92        4        0       95
   15 108    32    15844     2656     0.31     0.00      149       28     0.01     0.00      101        4        0      105
   15 109    33    13878     1938     0.70     0.00      163       30     0.01     0.00      108        4        0      113
   15 110    34    11581     1625     0.92     0.00      174       31     0.01     0.00      114        5        0      119
   15 111    35     8542     1313     0.84     0.00      183       32     0.01     0.00      119        5        0      124
   15 112    36     6139     1094     0.75     0.00      189       34     0.01     0.00      123        5        0      129
   15 113    37     5870     1063     0.68     0.00      195       35     0.01     0.00      127        6        0      133
   15 114    38     5982     1313     0.62     0.00      201       36     0.01     0.00      132        6        0      138
   15 115    39     6904     1469     0.57     0.00      208       37     0.01     0.00      137        6        0      144
   15 116    40     7850     1813     0.50     0.00      216       39     0.01     0.00      144        7        0      150
   15 117    41     9472     2250     0.45     0.00      225       41     0.01     0.00      152        7        0      159
   15 118    42    11645     2375     0.38     0.00      237       44     0.01     0.00      161        7        0      168
   15 119    43    12689     2563     0.20     0.00      249       46     0.02     0.00      170        7        0      177
   15 120    44    11958     2219     0.30     0.00      261       49     0.02     0.00      178        7        0      186
   15 121    45    11470     2219     0.29     0.00      273       51     0.02     0.00      187        7        0      194
   15 122    46     7833     1906     0.10     0.00      281       53     0.02     0.00      194        7        0      201
   15 123    47     6577     1563     0.14     0.00      287       54     0.02     0.00      199        7        0      207
   15 124    48     7814     2063     0.09     0.00      295       56     0.02     0.00      207        7        0      214
   15 125    49    12010     2844     0.17     0.00      307       59     0.02     0.00      217        8        0      225
   15 126    50    14705     3688     0.14     0.00      322       63     0.02     0.00      231        8        0      238
   15 127    51    14238     4281     0.09     0.00      336       67     0.02     0.00      247        8        0      254
   15 128    52    16099     4406     0.17     0.00      352       72     0.02     0.00      263        8        0      270
   15 129    53    16658     4688     0.21     0.00      369       76     0.02     0.00      280        8        0      288
   15 130    54    14988     4406     0.17     0.00      384       81     0.02     0.00      296        8        0      304
   15 131    55    12958     4000     0.22     0.00      397       85     0.02     0.00      311        8        0      319
   15 132    56    13020     4375     0.23     0.00      410       89     0.02     0.00      327        8        0      335
   15 133    57    13882     4969     0.24     0.00      424       94     0.02     0.00      345        8        0      353
   15 134    58    14756     5219     0.20     0.00      438       99     0.02     0.00      364        8        0      373
   15 135    59    14485     5406     0.27     0.00      453      105     0.02     0.00      384        8        0      393
   15 136    60    13683     5281     0.28     0.00      467      110     0.02     0.00      403        9        0      412
   15 137    61    13193     5188     0.29     0.00      480      115     0.02     0.00      423        9        0      431
   15 138    62    11901     4844     0.30     0.00      492      120     0.02     0.00      440        9        0      449
   15 139    63    11127     4563     0.31     0.00      503      125     0.02     0.00      457        9        0      466
   15 140    64    11719     4281     0.11     0.00      514      129     0.02     0.00      473        9        0      482
   15 141    65    10492     4125     0.10     0.00      525      133     0.02     0.00      488        9        0      497
   15 142    66    10067     3750     0.16     0.00      535      137     0.02     0.00      502        9        0      511
   15 143    67     9322     3281     0.25     0.00      544      140     0.02     0.00      514        9        0      523
   15 144    68     7943     2969     0.20     0.00      552      143     0.02     0.00      525        9        0      534
   15 145    69     7468     2688     0.24     0.00      560      146     0.02     0.00      534        9        0      544
   15 146    70     8953     3406     0.32     0.00      569      149     0.02     0.00      547       10        0      557
   15 147    71     9444     3688     0.36     0.00      578      153     0.02     0.00      560       10        0      570
   15 148    72     9304     3563     0.37     0.00      587      156     0.02     0.00      574       10        0      584
   15 149    73     9432     3750     0.36     0.00      597      160     0.02     0.00      587       10        0      597
   15 150    74    10267     4156     0.36     0.00      607      164     0.02     0.00      603       10        0      613
   15 151    75    10337     4250     0.36     0.00      618      168     0.02     0.00      618       10        0      629
   15 152    76    11251     4656     0.36     0.00      629      173     0.02     0.00      635       11        0      646
   15 153    77    14097     5563     0.90     0.00      643      179     0.02     0.00      656       11        0      667
   15 154    78    15621     6500     1.22     0.00      658      185     0.02     0.00      680       12        0      691
   15 155    79    16342     7094     1.35     0.00      675      192     0.03     0.00      706       12        0      718
   15 156    80    16662     7750     1.38     0.00      691      200     0.03     0.00      734       13        0      747
   15 157    81    17222     8406     1.37     0.00      709      208     0.03     0.00      765       14        0      778
   15 158    82    18380     8813     1.18     0.00      727      217     0.03     0.00      797       14        0      811
   15 159    83    17545     8813     1.06     0.00      745      226     0.03     0.00      830       15        0      844
   15 160    84    19426     8188     0.33     0.00      764      234     0.03     0.00      860       15        0      874
   15 161    85    17884     7438     0.60     0.00      782      242     0.03     0.00      887       15        0      902
   15 162    86    15841     6719     0.70     0.00      798      248     0.03     0.00      912       15        0      927
   15 163    87    14626     6438     0.74     0.00      812      255     0.03     0.00      935       16        0      951
   15 164    88    13994     6406     0.67     0.00      826      261     0.03     0.00      959       16        0      975
   15 165    89    14475     6750     0.29     0.00      841      268     0.03     0.00      983       16        0     1000
   15 166    90    15522     7844     0.23     0.00      856      276     0.03     0.00     1012       16        0     1029
   15 167    91    15680     8156     0.21     0.00      872      284     0.03     0.00     1042       16        0     1059
   15 168    92    15840     7688     0.36     0.00      888      292     0.04     0.00     1070       17        0     1087
   15 169    93    14741     7000     0.46     0.00      903      299     0.04     0.00     1096       17        0     1113
   15 170    94    12506     6375     0.16     0.00      915      305     0.04     0.00     1119       17        0     1136
   15 171    95    11152     5531     0.31     0.00      926      311     0.04     0.00     1140       17        0     1157
   15 172    96    10667     5250     0.39     0.00      937      316     0.04     0.00     1159       17        0     1176
   15 173    97    10207     5031     0.41     0.00      947      321     0.04     0.00     1177       17        0     1195
   15 174    98     9956     5250     0.13     0.00      957      326     0.04     0.00     1197       17        0     1214
   15 175    99     9903     5188     0.19     0.00      967      331     0.04     0.00     1216       18        0     1233
   15 176   100    10371     5344     0.31     0.00      977      337     0.04     0.00     1235       18        0     1253
   15 177   101    10823     5531     0.38     0.00      988      342     0.04     0.00     1256       18        0     1274
   15 178   102    11286     6000     0.36     0.00     1000      348     0.04     0.00     1278       18        0     1296
   15 179   103    11351     6375     0.34     0.00     1011      355     0.04     0.00     1301       18        0     1319
   15 180   104    12168     6969     0.33     0.00     1023      362     0.04     0.00     1327       18        0     1345
   15 181   105    12852     7594     0.32     0.00     1036      369     0.04     0.00     1355       18        0     1373
   15 182   106    13715     8469     0.31     0.00     1050      378     0.04     0.00     1386       19        0     1404
   15 183   107    13635     8781     0.31     0.00     1063      386     0.04     0.00     1418       19        0     1437
   15 184   108    13468     8938     1.17     0.00     1077      395     0.04     0.00     1451       19        0     1470
   15 185   109    13391     9125     1.68     0.00     1090      404     0.04     0.00     1484       20        0     1504
   15 186   110    13319     9375     1.95     0.00     1103      414     0.04     0.00     1519       21        0     1540
   15 187   111    13002     9375     2.05     0.00     1116      423     0.05     0.00     1553       22        0     1575
   15 188   112    12408     9156     2.02     0.00     1129      432     0.05     0.00     1587       23        0     1609
   15 189   113    13656     9406     1.78     0.00     1143      442     0.05     0.00     1621       24        0     1645
   15 190   114    13706     8688     1.56     0.00     1156      450     0.05     0.00     1653       24        0     1677
   15 191   115    11826     7656     1.46     0.00     1168      458     0.05     0.00     1681       25        0     1706
   15 192   116     9897     6688     1.31     0.00     1178      465     0.06     0.00     1706       26        0     1731
   15 193   117     8588     6063     1.18     0.00     1187      471     0.06     0.00     1728       26        0     1754
   15 194   118     7172     5344     1.08     0.00     1194      476     0.06     0.00     1747       27        0     1774
   15 195   119     7007     5219     0.94     0.00     1201      481     0.06     0.00     1767       27        0     1794
   15 196   120     7438     5750     0.85     0.00     1208      487     0.06     0.00     1788       28        0     1815
   15 197   121     7728     6000     0.77     0.00     1216      493     0.06     0.00     1810       28        0     1838
   15 198   122     7628     6125     0.70     0.00     1223      499     0.06     0.00     1832       28        0     1861
   15 199   123     7356     6094     0.63     0.00     1231      505     0.06     0.00     1855       29        0     1883
   15 200   124     7095     5969     0.57     0.00     1238      511     0.06     0.00     1877       29        0     1905
   15 201   125     6831     5906     0.52     0.00     1245      517     0.06     0.00     1898       29        0     1927
   15 202   126     6603     5781     0.48     0.00     1251      523     0.06     0.00     1919       29        0     1949
   15 203   127     6433     5750     0.45     0.00     1258      529     0.06     0.00     1941       30        0     1970
   15 204   128     6063     5563     0.42     0.00     1264      534     0.06     0.00     1961       30        0     1991
   15 205   129     6005     5344     0.38     0.00     1270      540     0.06     0.00     1981       30        0     2011
   15 206   130     5812     5250     0.36     0.00     1276      545     0.06     0.00     2000       30        0     2030
   15 207   131     5334     4875     0.35     0.00     1281      550     0.06     0.00     2018       30        0     2048
   15 208   132     4786     4438     0.34     0.00     1286      554     0.07     0.00     2034       30        0     2064
   15 209   133     5071     4188     0.30     0.00     1291      558     0.07     0.00     2049       31        0     2080
   15 210   134     4719     4031     0.30     0.00     1296      562     0.07     0.00     2064       31        0     2095
   15 211   135     4295     3656     0.30     0.00     1300      566     0.07     0.00     2078       31        0     2108
   15 212   136     3841     3375     0.30     0.00     1304      569     0.07     0.00     2090       31        0     2121
[...]
   15 077     1    12360     1656     0.01     0.00       12        2     0.00     0.00        6        0        0        6
   15 078     2    10581     1563     0.01     0.00       23        3     0.00     0.00       12        0        0       12
   15 079     3     8293     1313     0.01     0.00       31        5     0.00     0.00       17        0        0       17
   15 080     4     5921     1031     0.02     0.00       37        6     0.00     0.00       20        0        0       20
   15 081     5     3797      656     0.02     0.00       41        6     0.00     0.00       23        0        0       23
   15 082     6      821      281     0.02     0.00       42        7     0.00     0.00       24        0        0       24
   15 083     7      130        0     0.02     0.00       42        7     0.00     0.00       24        0        0       24
   15 084     8      146      125     0.03     0.00       42        7     0.00     0.00       24        0        0       24
   15 085     9      675      219     0.03     0.00       43        7     0.00     0.00       25        0        0       25
   15 086    10      786      219     0.03     0.00       44        7     0.00     0.00       26        0        0       26
   15 087    11     1747      406     0.03     0.00       45        7     0.00     0.00       27        0        0       28
   15 088    12     2843      656     0.03     0.00       48        8     0.00     0.00       30        0        0       30
   15 089    13     3811      813     0.04     0.00       52        9     0.00     0.00       33        0        0       33
   15 090    14     3354      531     0.03     0.00       55        9     0.00     0.00       35        0        0       35
   15 091    15     3994      625     0.03     0.00       59       10     0.00     0.00       37        0        0       37
   15 092    16     2685      500     0.02     0.00       62       11     0.00     0.00       39        0        0       39
   15 093    17     1332      281     0.02     0.00       63       11     0.00     0.00       40        0        0       40
   15 094    18       74        0     0.04     0.00       63       11     0.00     0.00       40        0        0       40
   15 095    19       14       31     0.03     0.00       63       11     0.00     0.00       40        0        0       40
   15 096    20        0        0     0.05     0.00       63       11     0.00     0.00       40        0        0       40
   15 097    21        0        0     0.06     0.00       63       11     0.00     0.00       40        0        0       40
   15 098    22        0        0     0.06     0.00       63       11     0.00     0.00       40        0        0       40
   15 099    23        0        0     0.06     0.00       63       11     0.00     0.00       40        0        0       40
   15 100    24       72       31     0.06     0.00       63       11     0.00     0.00       40        0        0       40
   15 101    25     3115      531     0.06     0.00       67       11     0.00     0.00       42        0        0       42
   15 102    26     6836     1250     0.06     0.00       73       13     0.00     0.00       47        0        0       47
   15 103    27     9923     1875     0.06     0.00       83       15     0.00     0.00       54        0        0       54
   15 104    28    11461     2281     0.06     0.00       95       17     0.00     0.00       62        0        0       62
   15 105    29    11625     2469     0.07     0.00      106       19     0.00     0.00       71        0        0       71
   15 106    30    12303     2813     0.07     0.00      119       22     0.00     0.00       81        1        0       82
   15 107    31    13040     3094     0.07     0.00      132       25     0.00     0.00       93        1        0       93
   15 108    32    14284     3031     0.02     0.00      146       28     0.00     0.00      104        1        0      104
   15 109    33    12376     2344     0.05     0.00      158       31     0.00     0.00      112        1        0      113
   15 110    34    10271     1938     0.07     0.00      169       33     0.00     0.00      120        1        0      120
   15 111    35     7626     1531     0.07     0.00      176       34     0.00     0.00      125        1        0      126
   15 112    36     5549     1250     0.07     0.00      182       35     0.00     0.00      130        1        0      130
   15 113    37     5349     1219     0.07     0.00      187       37     0.00     0.00      134        1        0      135
   15 114    38     5517     1406     0.08     0.00      193       38     0.00     0.00      139        1        0      140
   15 115    39     6403     1625     0.08     0.00      199       40     0.00     0.00      145        1        0      146
   15 116    40     7346     1969     0.08     0.00      206       42     0.00     0.00      153        1        0      153
   15 117    41     8932     2375     0.08     0.00      215       44     0.00     0.00      161        1        0      162
   15 118    42    10833     2625     0.08     0.00      226       47     0.00     0.00      171        1        0      172
   15 119    43    11657     2844     0.04     0.00      238       49     0.00     0.00      181        1        0      182
   15 120    44    10819     2469     0.08     0.00      249       52     0.00     0.00      190        1        0      191
   15 121    45    10463     2469     0.09     0.00      259       54     0.00     0.00      199        1        0      200
   15 122    46     7094     2125     0.03     0.00      266       56     0.00     0.00      207        1        0      208
   15 123    47     6003     1688     0.05     0.00      272       58     0.00     0.00      213        1        0      214
   15 124    48     7335     2188     0.03     0.00      280       60     0.00     0.00      221        1        0      223
   15 125    49    11093     3063     0.07     0.00      291       63     0.00     0.00      233        1        0      234
   15 126    50    13607     3969     0.06     0.00      304       67     0.00     0.00      247        1        0      248
   15 127    51    13444     4500     0.04     0.00      318       72     0.00     0.00      264        1        0      265
   15 128    52    15307     4594     0.08     0.00      333       76     0.00     0.00      281        1        0      282
   15 129    53    16076     4813     0.10     0.00      349       81     0.00     0.00      298        1        0      300
   15 130    54    14702     4500     0.07     0.00      364       86     0.00     0.00      315        1        0      316
   15 131    55    13250     3906     0.11     0.00      377       90     0.00     0.00      329        1        0      330
   15 132    56    13414     4281     0.12     0.00      390       94     0.00     0.00      345        1        0      346
   15 133    57    14639     4844     0.12     0.00      405       99     0.00     0.00      363        1        0      364
   15 134    58    15554     4969     0.09     0.00      421      104     0.00     0.00      381        1        0      382
   15 135    59    15704     5125     0.14     0.00      436      109     0.00     0.00      400        2        0      401
   15 136    60    14655     5063     0.15     0.00      451      114     0.00     0.00      418        2        0      420
   15 137    61    14099     4969     0.15     0.00      465      119     0.00     0.00      437        2        0      438
   15 138    62    12959     4656     0.16     0.00      478      124     0.00     0.00      454        2        0      455
   15 139    63    12277     4313     0.17     0.00      490      128     0.00     0.00      469        2        0      471
   15 140    64    12034     4250     0.06     0.00      502      132     0.00     0.00      485        2        0      487
   15 141    65    10652     4094     0.05     0.00      513      136     0.00     0.00      500        2        0      502
   15 142    66    10232     3719     0.09     0.00      523      140     0.00     0.00      514        2        0      516
   15 143    67     9505     3250     0.14     0.00      533      143     0.00     0.00      526        2        0      528
   15 144    68     8193     2844     0.12     0.00      541      146     0.00     0.00      536        2        0      538
   15 145    69     7625     2719     0.14     0.00      549      149     0.00     0.00      546        2        0      548
   15 146    70     9393     3250     0.19     0.00      558      152     0.00     0.00      558        2        0      560
   15 147    71     9805     3594     0.21     0.00      568      156     0.00     0.00      571        2        0      573
   15 148    72     9546     3594     0.21     0.00      577      159     0.01     0.00      584        2        0      587
   15 149    73     9695     3594     0.22     0.00      587      163     0.01     0.00      598        2        0      600
   15 150    74    10694     4031     0.22     0.00      598      167     0.01     0.00      612        3        0      615
   15 151    75    10612     4156     0.23     0.00      608      171     0.01     0.00      628        3        0      630
   15 152    76    11313     4594     0.23     0.00      620      176     0.01     0.00      644        3        0      647
   15 153    77    13483     5625     0.24     0.00      633      181     0.01     0.00      665        3        0      668
   15 154    78    14919     6438     0.25     0.00      648      188     0.01     0.00      689        3        0      692
   15 155    79    15727     7031     0.26     0.00      664      195     0.01     0.00      715        3        0      718
   15 156    80    16380     7656     0.27     0.00      680      202     0.01     0.00      743        3        0      746
   15 157    81    17438     8344     0.27     0.00      698      211     0.01     0.00      773        3        0      777
   15 158    82    19026     8844     0.26     0.00      717      220     0.01     0.00      806        4        0      809
   15 159    83    18752     9063     0.27     0.00      735      229     0.01     0.00      839        4        0      843
   15 160    84    19845     8469     0.10     0.00      755      237     0.01     0.00      870        4        0      874
   15 161    85    18273     7594     0.19     0.00      774      245     0.01     0.00      898        4        0      902
   15 162    86    16407     6906     0.26     0.00      790      252     0.01     0.00      923        4        0      927
   15 163    87    15342     6406     0.31     0.00      805      258     0.01     0.00      947        4        0      951
   15 164    88    14706     6469     0.30     0.00      820      264     0.01     0.00      970        4        0      975
   15 165    89    15276     6969     0.13     0.00      835      271     0.01     0.00      996        4        0     1000
   15 166    90    16255     8125     0.12     0.00      852      280     0.01     0.00     1026        4        0     1030
   15 167    91    15965     8188     0.11     0.00      867      288     0.01     0.00     1056        4        0     1060
   15 168    92    16045     7688     0.21     0.00      884      295     0.01     0.00     1084        4        0     1089
   15 169    93    14938     6938     0.29     0.00      898      302     0.01     0.00     1110        5        0     1114
   15 170    94    12588     6375     0.10     0.00      911      309     0.01     0.00     1133        5        0     1138
   15 171    95    11277     5469     0.21     0.00      922      314     0.01     0.00     1153        5        0     1158
   15 172    96    10820     5250     0.29     0.00      933      319     0.01     0.00     1172        5        0     1177
   15 173    97    10345     5031     0.32     0.00      943      324     0.01     0.00     1191        5        0     1196
   15 174    98    10066     5188     0.11     0.00      954      330     0.01     0.00     1210        5        0     1215
   15 175    99    10020     5156     0.16     0.00      964      335     0.01     0.00     1229        5        0     1234
   15 176   100    10514     5313     0.28     0.00      974      340     0.01     0.00     1248        5        0     1254
   15 177   101    10919     5469     0.34     0.00      985      346     0.01     0.00     1268        5        0     1274
   15 178   102    11378     5969     0.33     0.00      996      352     0.01     0.00     1290        6        0     1296
   15 179   103    11418     6344     0.32     0.00     1008      358     0.01     0.00     1314        6        0     1319
   15 180   104    12168     6906     0.32     0.00     1020      365     0.01     0.00     1339        6        0     1345
   15 181   105    12835     7531     0.32     0.00     1033      372     0.01     0.00     1367        6        0     1373
   15 182   106    13807     8406     0.33     0.00     1047      381     0.01     0.00     1397        6        0     1404
   15 183   107    14099     8906     0.33     0.00     1061      390     0.01     0.00     1430        6        0     1436
   15 184   108    14338     9406     0.33     0.00     1075      399     0.01     0.00     1465        7        0     1471
   15 185   109    14707     9875     0.33     0.00     1090      409     0.01     0.00     1501        7        0     1507
   15 186   110    15016    10406     0.33     0.00     1105      419     0.01     0.00     1539        7        0     1546
   15 187   111    15057    10719     0.34     0.00     1120      430     0.01     0.00     1578        7        0     1585
   15 188   112    14717    10719     0.34     0.00     1135      441     0.02     0.00     1618        7        0     1625
   15 189   113    16340    11156     0.30     0.00     1151      452     0.02     0.00     1659        7        0     1666
   15 190   114    16578    10344     0.30     0.00     1167      462     0.02     0.00     1697        7        0     1704
   15 191   115    14199     9250     0.30     0.00     1182      472     0.02     0.00     1731        8        0     1738
   15 192   116    12007     8094     0.31     0.00     1194      480     0.02     0.00     1760        8        0     1768
   15 193   117    10764     7531     0.32     0.00     1204      487     0.02     0.00     1788        8        0     1796
   15 194   118     9446     6813     0.33     0.00     1214      494     0.02     0.00     1813        8        0     1821
   15 195   119     9396     6844     0.33     0.00     1223      501     0.02     0.00     1838        8        0     1846
   15 196   120    10069     7469     0.34     0.00     1233      508     0.02     0.00     1865        8        0     1874
   15 197   121    10679     8031     0.35     0.00     1244      516     0.02     0.00     1895        9        0     1903
   15 198   122    10807     8313     0.35     0.00     1255      525     0.02     0.00     1925        9        0     1934
   15 199   123    10818     8469     0.36     0.00     1266      533     0.02     0.00     1956        9        0     1965
   15 200   124    10818     8625     0.36     0.00     1276      542     0.02     0.00     1988        9        0     1997
   15 201   125    10708     8688     0.36     0.00     1287      550     0.02     0.00     2020        9        0     2029
   15 202   126    10577     8719     0.36     0.00     1298      559     0.02     0.00     2052        9        0     2061
   15 203   127    10511     8750     0.37     0.00     1308      568     0.02     0.00     2084       10        0     2094
   15 204   128    10182     8563     0.36     0.00     1318      576     0.02     0.00     2116       10        0     2125
   15 205   129    10062     8406     0.35     0.00     1329      585     0.02     0.00     2146       10        0     2156
   15 206   130     9832     8344     0.36     0.00     1338      593     0.02     0.00     2177       10        0     2187
   15 207   131     9111     7813     0.36     0.00     1347      601     0.02     0.00     2206       10        0     2216
   15 208   132     8075     7000     0.36     0.00     1356      608     0.02     0.00     2231       10        0     2242
   15 209   133     7983     6438     0.32     0.00     1364      614     0.02     0.00     2255       11        0     2265
   15 210   134     7612     6156     0.33     0.00     1371      621     0.02     0.00     2278       11        0     2288
   15 211   135     6907     5531     0.33     0.00     1378      626     0.02     0.00     2298       11        0     2309
   15 212   136     6278     5125     0.34     0.00     1384      631     0.02     0.00     2317       11        0     2328
   15 213   137     6141     5125     0.35     0.00     1390      636     0.02     0.00     2335       11        0     2347
   15 214   138     5868     5000     0.35     0.00     1396      641     0.02     0.00     2354       11        0     2365
   15 215   139     5908     5063     0.35     0.00     1402      646     0.02     0.00     2372       11        0     2384
   15 216   140     6238     5438     0.36     0.00     1408      652     0.02     0.00     2392       12        0     2404
   15 217   141     6738     5906     0.36     0.00     1415      658     0.03     0.00     2414       12        0     2426
   15 218   142     7002     6250     0.36     0.00     1422      664     0.03     0.00     2437       12        0     2449
   15 219   143     7415     6656     0.36     0.00     1430      671     0.03     0.00     2461       12        0     2474
   15 220   144     7759     7000     0.36     0.00     1437      678     0.03     0.00     2487       12        0     2499
   15 221   145     8339     7406     0.35     0.00     1446      685     0.03     0.00     2514       12        0     2527
   15 222   146     8451     7563     0.35     0.00     1454      693     0.03     0.00     2542       13        0     2555
   15 223   147     8546     7688     0.35     0.00     1463      700     0.03     0.00     2570       13        0     2583
   15 224   148     8492     7719     0.36     0.00     1471      708     0.03     0.00     2599       13        0     2612
   15 225   149     8332     7656     0.36     0.00     1480      716     0.03     0.00     2627       13        0     2640
   15 226   150     8212     7563     0.36     0.00     1488      723     0.03     0.00     2654       13        0     2668
   15 227   151     9434     7844     0.31     0.00     1497      731     0.03     0.00     2683       13        0     2697
   15 228   152     8959     7594     0.33     0.00     1506      739     0.03     0.00     2711       14        0     2725
   15 229   153     9542     7063     0.32     0.00     1516      746     0.03     0.00     2737       14        0     2751
   15 230   154     8755     6500     0.21     0.00     1524      752     0.03     0.00     2761       14        0     2775
   15 231   155     8085     5906     0.35     0.00     1533      758     0.03     0.00     2783       14        0     2797
   15 232   156     7056     5313     0.36     0.00     1540      764     0.03     0.00     2802       14        0     2816
   15 233   157     6517     4969     0.36     0.00     1546      768     0.03     0.00     2820       14        0     2835
   15 234   158     6264     4906     0.36     0.00     1552      773     0.03     0.00     2838       15        0     2853
   15 235   159     6379     5094     0.37     0.00     1559      778     0.03     0.00     2857       15        0     2872
   15 236   160     6899     5406     0.37     0.00     1566      784     0.03     0.00     2877       15        0     2892
   15 237   161     9712     6188     0.16     0.00     1575      790     0.03     0.00     2900       15        0     2914
