*MANAGEMENT OPERATIONS DAILY OUTPUT FILE

*DSSAT Cropping System Model Ver. 4.8.5.000 -release  FEB 02, 2026 11:46:55

*RUN   1        : 1                         WHAPS048 TUDU1501    1
 MODEL          : WHAPS048 - Wheat
 EXPERIMENT     : TUDU1501 WH
 DATA PATH      :
 TREATMENT  1   : 1                         WHAPS048
  

@YEAR DOY   DAS   DAP  TL#C  TLDD DLYR3   TLBD  NAPC  NICM  R#AC RESNC RESPC
   15 077     1     0     1     4    20  1.332     0     0     0     0     0
   15 078     2     1     1     0    20  1.332     0     0     0     0     0
   15 079     3     2     1     0    20  1.332     0     0     0     0     0
   15 080     4     3     1     0    20  1.331     0     0     0     0     0
   15 081     5     4     1     0    20  1.331     0     0     0     0     0
   15 082     6     5     1     0    20  1.331     0     0     0     0     0
   15 083     7     6     1     0    20  1.331     0     0     0     0     0
   15 084     8     7     1     0    20  1.331     0     0     0     0     0
   15 085     9     8     1     0    20  1.331     0     0     0     0     0
   15 086    10     9     1     0    20  1.330     0     0     0     0     0
   15 087    11    10     1     0    20  1.330     0     0     0     0     0
   15 088    12    11     1     0    20  1.330     0     0     0     0     0
   15 089    13    12     1     0    20  1.328     0     0     0     0     0
   15 090    14    13     1     0    20  1.326     0     0     0     0     0
   15 091    15    14     1     0    20  1.325     0     0     0     0     0
   15 092    16    15     1     0    20  1.324     0     0     0     0     0
   15 093    17    16     1     0    20  1.324     0     0     0     0     0
   15 094    18    17     1     0    20  1.323     0     0     0     0     0
   15 095    19    18     1     0    20  1.323     0     0     0     0     0
   15 096    20    19     1     0    20  1.323     0     0     0     0     0
   15 097    21    20     1     0    20  1.323     0     0     0     0     0
   15 098    22    21     1     0    20  1.323     1    40     0     0     0
   15 099    23    22     1     0    20  1.323     1    40     0     0     0
   15 100    24    23     1     0    20  1.323     1    40     0     0     0
   15 101    25    24     1     0    20  1.323     1    40     0     0     0
   15 102    26    25     1     0    20  1.323     1    40     0     0     0
   15 103    27    26     1     0    20  1.323     1    40     0     0     0
   15 104    28    27     1     0    20  1.323     1    40     0     0     0
   15 105    29    28     1     0    20  1.323     1    40     0     0     0
   15 106    30    29     1     0    20  1.323     1    40     0     0     0
   15 107    31    30     1     0    20  1.317     1    40     0     0     0
   15 108    32    31     1     0    20  1.317     1    40     0     0     0
   15 109    33    32     1     0    20  1.317     1    40     0     0     0
   15 110    34    33     1     0    20  1.317     1    40     0     0     0
   15 111    35    34     1     0    20  1.317     1    40     0     0     0
   15 112    36    35     1     0    20  1.317     1    40     0     0     0
   15 113    37    36     1     0    20  1.317     1    40     0     0     0
   15 114    38    37     1     0    20  1.317     1    40     0     0     0
   15 115    39    38     1     0    20  1.317     1    40     0     0     0
   15 116    40    39     1     0    20  1.317     1    40     0     0     0
   15 117    41    40     1     0    20  1.316     1    40     0     0     0
   15 118    42    41     1     0    20  1.315     1    40     0     0     0
   15 119    43    42     1     0    20  1.315     1    40     0     0     0
   15 120    44    43     1     0    20  1.315     1    40     0     0     0
   15 121    45    44     1     0    20  1.312     1    40     0     0     0
   15 122    46    45     1     0    20  1.312     1    40     0     0     0
   15 123    47    46     1     0    20  1.311     1    40     0     0     0
   15 124    48    47     1     0    20  1.311     1    40     0     0     0
   15 125    49    48     1     0    20  1.311     1    40     0     0     0
   15 126    50    49     1     0    20  1.308     1    40     0     0     0
   15 127    51    50     1     0    20  1.308     1    40     0     0     0
   15 128    52    51     1     0    20  1.308     1    40     0     0     0
   15 129    53    52     1     0    20  1.308     1    40     0     0     0
   15 130    54    53     1     0    20  1.308     1    40     0     0     0
   15 131    55    54     1     0    20  1.308     1    40     0     0     0
   15 132    56    55     1     0    20  1.308     1    40     0     0     0
   15 133    57    56     1     0    20  1.308     1    40     0     0     0
   15 134    58    57     1     0    20  1.308     1    40     0     0     0
   15 135    59    58     1     0    20  1.308     1    40     0     0     0
   15 136    60    59     1     0    20  1.308     1    40     0     0     0
   15 137    61    60     1     0    20  1.308     1    40     0     0     0
   15 138    62    61     1     0    20  1.308     1    40     0     0     0
   15 139    63    62     1     0    20  1.308     1    40     0     0     0
   15 140    64    63     1     0    20  1.308     1    40     0     0     0
   15 141    65    64     1     0    20  1.308     1    40     0     0     0
   15 142    66    65     1     0    20  1.308     1    40     0     0     0
   15 143    67    66     1     0    20  1.308     1    40     0     0     0
   15 144    68    67     1     0    20  1.308     1    40     0     0     0
   15 145    69    68     1     0    20  1.308     1    40     0     0     0
   15 146    70    69     1     0    20  1.308     1    40     0     0     0
   15 147    71    70     1     0    20  1.308     1    40     0     0     0
   15 148    72    71     1     0    20  1.308     1    40     0     0     0
   15 149    73    72     1     0    20  1.308     1    40     0     0     0
   15 150    74    73     1     0    20  1.308     1    40     0     0     0
   15 151    75    74     1     0    20  1.308     1    40     0     0     0
   15 152    76    75     1     0    20  1.308     2    80     0     0     0
   15 153    77    76     1     0    20  1.308     2    80     0     0     0
   15 154    78    77     1     0    20  1.308     2    80     0     0     0
   15 155    79    78     1     0    20  1.308     2    80     0     0     0
   15 156    80    79     1     0    20  1.308     2    80     0     0     0
   15 157    81    80     1     0    20  1.308     2    80     0     0     0
   15 158    82    81     1     0    20  1.308     2    80     0     0     0
   15 159    83    82     1     0    20  1.308     2    80     0     0     0
   15 160    84    83     1     0    20  1.308     2    80     0     0     0
   15 161    85    84     1     0    20  1.308     2    80     0     0     0
   15 162    86    85     1     0    20  1.308     2    80     0     0     0
   15 163    87    86     1     0    20  1.308     2    80     0     0     0
   15 164    88    87     1     0    20  1.308     2    80     0     0     0
   15 165    89    88     1     0    20  1.308     2    80     0     0     0
   15 166    90    89     1     0    20  1.308     2    80     0     0     0
   15 167    91    90     1     0    20  1.308     2    80     0     0     0
   15 168    92    91     1     0    20  1.308     2    80     0     0     0
   15 169    93    92     1     0    20  1.308     2    80     0     0     0
   15 170    94    93     1     0    20  1.308     2    80     0     0     0
   15 171    95    94     1     0    20  1.308     2    80     0     0     0
   15 172    96    95     1     0    20  1.308     2    80     0     0     0
   15 173    97    96     1     0    20  1.308     2    80     0     0     0
   15 174    98    97     1     0    20  1.308     2    80     0     0     0
   15 175    99    98     1     0    20  1.308     2    80     0     0     0
   15 176   100    99     1     0    20  1.308     2    80     0     0     0
   15 177   101   100     1     0    20  1.308     2    80     0     0     0
   15 178   102   101     1     0    20  1.308     2    80     0     0     0
   15 179   103   102     1     0    20  1.308     2    80     0     0     0
   15 180   104   103     1     0    20  1.308     2    80     0     0     0
   15 181   105   104     1     0    20  1.308     2    80     0     0     0
   15 182   106   105     1     0    20  1.308     2    80     0     0     0
   15 183   107   106     1     0    20  1.308     3   120     0     0     0
   15 184   108   107     1     0    20  1.308     3   120     0     0     0
   15 185   109   108     1     0    20  1.308     3   120     0     0     0
   15 186   110   109     1     0    20  1.308     3   120     0     0     0
   15 187   111   110     1     0    20  1.308     3   120     0     0     0
   15 188   112   111     1     0    20  1.308     3   120     0     0     0
   15 189   113   112     1     0    20  1.308     3   120     0     0     0
   15 190   114   113     1     0    20  1.308     3   120     0     0     0
   15 191   115   114     1     0    20  1.308     3   120     0     0     0
   15 192   116   115     1     0    20  1.308     3   120     0     0     0
   15 193   117   116     1     0    20  1.308     3   120     0     0     0
   15 194   118   117     1     0    20  1.308     3   120     0     0     0
   15 195   119   118     1     0    20  1.308     3   120     0     0     0
   15 196   120   119     1     0    20  1.308     3   120     0     0     0
   15 197   121   120     1     0    20  1.308     3   120     0     0     0
   15 198   122   121     1     0    20  1.308     3   120     0     0     0
   15 199   123   122     1     0    20  1.308     3   120     0     0     0
   15 200   124   123     1     0    20  1.308     3   120     0     0     0
   15 201   125   124     1     0    20  1.308     3   120     0     0     0
   15 202   126   125     1     0    20  1.308     3   120     0     0     0
   15 203   127   126     1     0    20  1.308     3   120     0     0     0
   15 204   128   127     1     0    20  1.308     3   120     0     0     0
   15 205   129   128     1     0    20  1.308     3   120     0     0     0
   15 206   130   129     1     0    20  1.308     3   120     0     0     0
   15 207   131   130     1     0    20  1.308     3   120     0     0     0
   15 208   132   131     1     0    20  1.308     3   120     0     0     0
   15 209   133   132     1     0    20  1.308     3   120     0     0     0
   15 210   134   133     1     0    20  1.308     3   120     0     0     0
   15 211   135   134     1     0    20  1.308     3   120     0     0     0
   15 212   136   135     1     0    20  1.308     3   120     0     0     0
   15 213   137   136     1     0    20  1.308     3   120     0     0     0
   15 214   138   137     1     0    20  1.308     3   120     0     0     0
   15 215   139   138     1     0    20  1.308     3   120     0     0     0
   15 216   140   139     1     0    20  1.308     3   120     0     0     0
   15 217   141   140     1     0    20  1.308     3   120     0     0     0
   15 218   142   141     1     0    20  1.308     3   120     0     0     0
   15 219   143   142     1     0    20  1.308     3   120     0     0     0
   15 220   144   143     1     0    20  1.308     3   120     0     0     0
   15 221   145   144     1     0    20  1.308     3   120     0     0     0
   15 222   146   145     1     0    20  1.308     3   120     0     0     0
   15 223   147   146     1     0    20  1.308     3   120     0     0     0
   15 224   148   147     1     0    20  1.308     3   120     0     0     0
   15 225   149   148     1     0    20  1.308     3   120     0     0     0
   15 226   150   149     1     0    20  1.308     3   120     0     0     0
   15 227   151   150     1     0    20  1.308     3   120     0     0     0
   15 228   152   151     1     0    20  1.308     3   120     0     0     0
   15 229   153   152     1     0    20  1.308     3   120     0     0     0
   15 230   154   153     1     0    20  1.308     3   120     0     0     0
   15 231   155   154     1     0    20  1.308     3   120     0     0     0
   15 232   156   155     1     0    20  1.308     3   120     0     0     0
   15 233   157   156     1     0    20  1.308     3   120     0     0     0
   15 234   158   157     1     0    20  1.308     3   120     0     0     0
   15 235   159   158     1     0    20  1.308     3   120     0     0     0
   15 236   160   159     1     0    20  1.308     3   120     0     0     0
   15 237   161   160     1     0    20  1.308     3   120     0     0     0

*DSSAT Cropping System Model Ver. 4.8.5.000 -release  FEB 02, 2026 11:46:55

*RUN   2        : 2                         WHAPS048 TUDU1501    2
 MODEL          : WHAPS048 - Wheat
 EXPERIMENT     : TUDU1501 WH
 DATA PATH      :
 TREATMENT  2   : 2                         WHAPS048
  

@YEAR DOY   DAS   DAP  TL#C  TLDD DLYR3   TLBD  NAPC  NICM  R#AC RESNC RESPC
   15 077     1     0     1     4    20  1.332     0     0     0     0     0
   15 078     2     1     1     0    20  1.332     0     0     0     0     0
   15 079     3     2     1     0    20  1.332     0     0     0     0     0
   15 080     4     3     1     0    20  1.331     0     0     0     0     0
   15 081     5     4     1     0    20  1.331     0     0     0     0     0
   15 082     6     5     1     0    20  1.331     0     0     0     0     0
   15 083     7     6     1     0    20  1.331     0     0     0     0     0
   15 084     8     7     1     0    20  1.331     0     0     0     0     0
   15 085     9     8     1     0    20  1.331     0     0     0     0     0
   15 086    10     9     1     0    20  1.330     0     0     0     0     0
   15 087    11    10     1     0    20  1.330     0     0     0     0     0
   15 088    12    11     1     0    20  1.330     0     0     0     0     0
   15 089    13    12     1     0    20  1.328     0     0     0     0     0
   15 090    14    13     1     0    20  1.326     0     0     0     0     0
   15 091    15    14     1     0    20  1.325     0     0     0     0     0
   15 092    16    15     1     0    20  1.324     0     0     0     0     0
   15 093    17    16     1     0    20  1.324     0     0     0     0     0
   15 094    18    17     1     0    20  1.323     0     0     0     0     0
   15 095    19    18     1     0    20  1.323     0     0     0     0     0
   15 096    20    19     1     0    20  1.323     0     0     0     0     0
   15 097    21    20     1     0    20  1.323     0     0     0     0     0
   15 098    22    21     1     0    20  1.323     1    40     0     0     0
   15 099    23    22     1     0    20  1.323     1    40     0     0     0
   15 100    24    23     1     0    20  1.323     1    40     0     0     0
   15 101    25    24     1     0    20  1.323     1    40     0     0     0
   15 102    26    25     1     0    20  1.323     1    40     0     0     0
   15 103    27    26     1     0    20  1.323     1    40     0     0     0
   15 104    28    27     1     0    20  1.323     1    40     0     0     0
   15 105    29    28     1     0    20  1.323     1    40     0     0     0
   15 106    30    29     1     0    20  1.323     1    40     0     0     0
   15 107    31    30     1     0    20  1.317     1    40     0     0     0
   15 108    32    31     1     0    20  1.317     1    40     0     0     0
   15 109    33    32     1     0    20  1.317     1    40     0     0     0
   15 110    34    33     1     0    20  1.317     1    40     0     0     0
   15 111    35    34     1     0    20  1.317     1    40     0     0     0
   15 112    36    35     1     0    20  1.317     1    40     0     0     0
   15 113    37    36     1     0    20  1.317     1    40     0     0     0
   15 114    38    37     1     0    20  1.317     1    40     0     0     0
   15 115    39    38     1     0    20  1.317     1    40     0     0     0
   15 116    40    39     1     0    20  1.317     1    40     0     0     0
   15 117    41    40     1     0    20  1.316     1    40     0     0     0
   15 118    42    41     1     0    20  1.315     1    40     0     0     0
   15 119    43    42     1     0    20  1.315     1    40     0     0     0
   15 120    44    43     1     0    20  1.315     1    40     0     0     0
   15 121    45    44     1     0    20  1.312     1    40     0     0     0
   15 122    46    45     1     0    20  1.312     1    40     0     0     0
   15 123    47    46     1     0    20  1.311     1    40     0     0     0
   15 124    48    47     1     0    20  1.311     1    40     0     0     0
   15 125    49    48     1     0    20  1.311     1    40     0     0     0
   15 126    50    49     1     0    20  1.308     1    40     0     0     0
   15 127    51    50     1     0    20  1.308     1    40     0     0     0
   15 128    52    51     1     0    20  1.308     1    40     0     0     0
   15 129    53    52     1     0    20  1.308     1    40     0     0     0
   15 130    54    53     1     0    20  1.308     1    40     0     0     0
   15 131    55    54     1     0    20  1.308     1    40     0     0     0
   15 132    56    55     1     0    20  1.308     1    40     0     0     0
   15 133    57    56     1     0    20  1.308     1    40     0     0     0
   15 134    58    57     1     0    20  1.308     1    40     0     0     0
   15 135    59    58     1     0    20  1.308     1    40     0     0     0
   15 136    60    59     1     0    20  1.308     1    40     0     0     0
   15 137    61    60     1     0    20  1.308     1    40     0     0     0
   15 138    62    61     1     0    20  1.308     1    40     0     0     0
   15 139    63    62     1     0    20  1.308     1    40     0     0     0
   15 140    64    63     1     0    20  1.308     1    40     0     0     0
   15 141    65    64     1     0    20  1.308     1    40     0     0     0
   15 142    66    65     1     0    20  1.308     1    40     0     0     0
   15 143    67    66     1     0    20  1.308     1    40     0     0     0
   15 144    68    67     1     0    20  1.308     1    40     0     0     0
   15 145    69    68     1     0    20  1.308     1    40     0     0     0
   15 146    70    69     1     0    20  1.308     1    40     0     0     0
   15 147    71    70     1     0    20  1.308     1    40     0     0     0
   15 148    72    71     1     0    20  1.308     1    40     0     0     0
   15 149    73    72     1     0    20  1.308     1    40     0     0     0
   15 150    74    73     1     0    20  1.308     1    40     0     0     0
   15 151    75    74     1     0    20  1.308     1    40     0     0     0
   15 152    76    75     1     0    20  1.308     2    80     0     0     0
   15 153    77    76     1     0    20  1.308     2    80     0     0     0
   15 154    78    77     1     0    20  1.308     2    80     0     0     0
   15 155    79    78     1     0    20  1.308     2    80     0     0     0
   15 156    80    79     1     0    20  1.308     2    80     0     0     0
   15 157    81    80     1     0    20  1.308     2    80     0     0     0
   15 158    82    81     1     0    20  1.308     2    80     0     0     0
   15 159    83    82     1     0    20  1.308     2    80     0     0     0
   15 160    84    83     1     0    20  1.308     2    80     0     0     0
   15 161    85    84     1     0    20  1.308     2    80     0     0     0
   15 162    86    85     1     0    20  1.308     2    80     0     0     0
   15 163    87    86     1     0    20  1.308     2    80     0     0     0
   15 164    88    87     1     0    20  1.308     2    80     0     0     0
   15 165    89    88     1     0    20  1.308     2    80     0     0     0
   15 166    90    89     1     0    20  1.308     2    80     0     0     0
   15 167    91    90     1     0    20  1.308     2    80     0     0     0
   15 168    92    91     1     0    20  1.308     2    80     0     0     0
   15 169    93    92     1     0    20  1.308     2    80     0     0     0
   15 170    94    93     1     0    20  1.308     2    80     0     0     0
   15 171    95    94     1     0    20  1.308     2    80     0     0     0
   15 172    96    95     1     0    20  1.308     2    80     0     0     0
   15 173    97    96     1     0    20  1.308     2    80     0     0     0
   15 174    98    97     1     0    20  1.308     2    80     0     0     0
   15 175    99    98     1     0    20  1.308     2    80     0     0     0
   15 176   100    99     1     0    20  1.308     2    80     0     0     0
   15 177   101   100     1     0    20  1.308     2    80     0     0     0
   15 178   102   101     1     0    20  1.308     2    80     0     0     0
   15 179   103   102     1     0    20  1.308     2    80     0     0     0
   15 180   104   103     1     0    20  1.308     2    80     0     0     0
   15 181   105   104     1     0    20  1.308     2    80     0     0     0
   15 182   106   105     1     0    20  1.308     2    80     0     0     0
   15 183   107   106     1     0    20  1.308     3   120     0     0     0
   15 184   108   107     1     0    20  1.308     3   120     0     0     0
   15 185   109   108     1     0    20  1.308     3   120     0     0     0
   15 186   110   109     1     0    20  1.308     3   120     0     0     0
   15 187   111   110     1     0    20  1.308     3   120     0     0     0
   15 188   112   111     1     0    20  1.308     3   120     0     0     0
   15 189   113   112     1     0    20  1.308     3   120     0     0     0
   15 190   114   113     1     0    20  1.308     3   120     0     0     0
   15 191   115   114     1     0    20  1.308     3   120     0     0     0
   15 192   116   115     1     0    20  1.308     3   120     0     0     0
   15 193   117   116     1     0    20  1.308     3   120     0     0     0
   15 194   118   117     1     0    20  1.308     3   120     0     0     0
   15 195   119   118     1     0    20  1.308     3   120     0     0     0
   15 196   120   119     1     0    20  1.308     3   120     0     0     0
   15 197   121   120     1     0    20  1.308     3   120     0     0     0
   15 198   122   121     1     0    20  1.308     3   120     0     0     0
   15 199   123   122     1     0    20  1.308     3   120     0     0     0
   15 200   124   123     1     0    20  1.308     3   120     0     0     0
   15 201   125   124     1     0    20  1.308     3   120     0     0     0
   15 202   126   125     1     0    20  1.308     3   120     0     0     0
   15 203   127   126     1     0    20  1.308     3   120     0     0     0
   15 204   128   127     1     0    20  1.308     3   120     0     0     0
   15 205   129   128     1     0    20  1.308     3   120     0     0     0
   15 206   130   129     1     0    20  1.308     3   120     0     0     0
   15 207   131   130     1     0    20  1.308     3   120     0     0     0
   15 208   132   131     1     0    20  1.308     3   120     0     0     0
   15 209   133   132     1     0    20  1.308     3   120     0     0     0
   15 210   134   133     1     0    20  1.308     3   120     0     0     0
   15 211   135   134     1     0    20  1.308     3   120     0     0     0
   15 212   136   135     1     0    20  1.308     3   120     0     0     0
   15 213   137   136     1     0    20  1.308     3   120     0     0     0
   15 214   138   137     1     0    20  1.308     3   120     0     0     0
   15 215   139   138     1     0    20  1.308     3   120     0     0     0
   15 216   140   139     1     0    20  1.308     3   120     0     0     0
   15 217   141   140     1     0    20  1.308     3   120     0     0     0
   15 218   142   141     1     0    20  1.308     3   120     0     0     0
   15 219   143   142     1     0    20  1.308     3   120     0     0     0
   15 220   144   143     1     0    20  1.308     3   120     0     0     0
   15 221   145   144     1     0    20  1.308     3   120     0     0     0
   15 222   146   145     1     0    20  1.308     3   120     0     0     0
   15 223   147   146     1     0    20  1.308     3   120     0     0     0
   15 224   148   147     1     0    20  1.308     3   120     0     0     0
   15 225   149   148     1     0    20  1.308     3   120     0     0     0
   15 226   150   149     1     0    20  1.308     3   120     0     0     0
   15 227   151   150     1     0    20  1.308     3   120     0     0     0
   15 228   152   151     1     0    20  1.308     3   120     0     0     0
   15 229   153   152     1     0    20  1.308     3   120     0     0     0
   15 230   154   153     1     0    20  1.308     3   120     0     0     0
   15 231   155   154     1     0    20  1.308     3   120     0     0     0
   15 232   156   155     1     0    20  1.308     3   120     0     0     0
   15 233   157   156     1     0    20  1.308     3   120     0     0     0
   15 234   158   157     1     0    20  1.308     3   120     0     0     0
   15 235   159   158     1     0    20  1.308     3   120     0     0     0
   15 236   160   159     1     0    20  1.308     3   120     0     0     0
   15 237   161   160     1     0    20  1.308     3   120     0     0     0

*DSSAT Cropping System Model Ver. 4.8.5.000 -release  FEB 02, 2026 11:46:55

*RUN   3        : 3                         WHAPS048 TUDU1501    3
 MODEL          : WHAPS048 - Wheat
 EXPERIMENT     : TUDU1501 WH
 DATA PATH      :
 TREATMENT  3   : 3                         WHAPS048
  

@YEAR DOY   DAS   DAP  TL#C  TLDD DLYR3   TLBD  NAPC  NICM  R#AC RESNC RESPC
   15 077     1     0     1     4    20  1.332     0     0     0     0     0
   15 078     2     1     1     0    20  1.332     0     0     0     0     0
   15 079     3     2     1     0    20  1.332     0     0     0     0     0
   15 080     4     3     1     0    20  1.331     0     0     0     0     0
   15 081     5     4     1     0    20  1.331     0     0     0     0     0
   15 082     6     5     1     0    20  1.331     0     0     0     0     0
   15 083     7     6     1     0    20  1.331     0     0     0     0     0
   15 084     8     7     1     0    20  1.331     0     0     0     0     0
   15 085     9     8     1     0    20  1.331     0     0     0     0     0
   15 086    10     9     1     0    20  1.330     0     0     0     0     0
   15 087    11    10     1     0    20  1.330     0     0     0     0     0
   15 088    12    11     1     0    20  1.330     0     0     0     0     0
   15 089    13    12     1     0    20  1.328     0     0     0     0     0
   15 090    14    13     1     0    20  1.326     0     0     0     0     0
   15 091    15    14     1     0    20  1.325     0     0     0     0     0
   15 092    16    15     1     0    20  1.324     0     0     0     0     0
   15 093    17    16     1     0    20  1.324     0     0     0     0     0
   15 094    18    17     1     0    20  1.323     0     0     0     0     0
   15 095    19    18     1     0    20  1.323     0     0     0     0     0
   15 096    20    19     1     0    20  1.323     0     0     0     0     0
   15 097    21    20     1     0    20  1.323     0     0     0     0     0
   15 098    22    21     1     0    20  1.323     0     0     0     0     0
   15 099    23    22     1     0    20  1.323     0     0     0     0     0
   15 100    24    23     1     0    20  1.323     0     0     0     0     0
   15 101    25    24     1     0    20  1.323     0     0     0     0     0
   15 102    26    25     1     0    20  1.323     0     0     0     0     0
   15 103    27    26     1     0    20  1.323     0     0     0     0     0
   15 104    28    27     1     0    20  1.323     0     0     0     0     0
   15 105    29    28     1     0    20  1.323     0     0     0     0     0
   15 106    30    29     1     0    20  1.323     0     0     0     0     0
   15 107    31    30     1     0    20  1.317     0     0     0     0     0
   15 108    32    31     1     0    20  1.317     0     0     0     0     0
   15 109    33    32     1     0    20  1.317     0     0     0     0     0
   15 110    34    33     1     0    20  1.317     0     0     0     0     0
   15 111    35    34     1     0    20  1.317     0     0     0     0     0
   15 112    36    35     1     0    20  1.317     0     0     0     0     0
   15 113    37    36     1     0    20  1.317     0     0     0     0     0
   15 114    38    37     1     0    20  1.317     0     0     0     0     0
   15 115    39    38     1     0    20  1.317     0     0     0     0     0
   15 116    40    39     1     0    20  1.317     0     0     0     0     0
   15 117    41    40     1     0    20  1.316     0     0     0     0     0
   15 118    42    41     1     0    20  1.315     0     0     0     0     0
   15 119    43    42     1     0    20  1.315     0     0     0     0     0
   15 120    44    43     1     0    20  1.315     0     0     0     0     0
   15 121    45    44     1     0    20  1.312     0     0     0     0     0
   15 122    46    45     1     0    20  1.312     0     0     0     0     0
   15 123    47    46     1     0    20  1.311     0     0     0     0     0
   15 124    48    47     1     0    20  1.311     0     0     0     0     0
   15 125    49    48     1     0    20  1.311     0     0     0     0     0
   15 126    50    49     1     0    20  1.308     0     0     0     0     0
   15 127    51    50     1     0    20  1.308     0     0     0     0     0
   15 128    52    51     1     0    20  1.308     0     0     0     0     0
   15 129    53    52     1     0    20  1.308     0     0     0     0     0
   15 130    54    53     1     0    20  1.308     0     0     0     0     0
   15 131    55    54     1     0    20  1.308     0     0     0     0     0
   15 132    56    55     1     0    20  1.308     0     0     0     0     0
   15 133    57    56     1     0    20  1.308     0     0     0     0     0
   15 134    58    57     1     0    20  1.308     0     0     0     0     0
   15 135    59    58     1     0    20  1.308     0     0     0     0     0
   15 136    60    59     1     0    20  1.308     0     0     0     0     0
   15 137    61    60     1     0    20  1.308     0     0     0     0     0
   15 138    62    61     1     0    20  1.308     0     0     0     0     0
   15 139    63    62     1     0    20  1.308     0     0     0     0     0
   15 140    64    63     1     0    20  1.308     0     0     0     0     0
   15 141    65    64     1     0    20  1.308     0     0     0     0     0
   15 142    66    65     1     0    20  1.308     0     0     0     0     0
   15 143    67    66     1     0    20  1.308     0     0     0     0     0
   15 144    68    67     1     0    20  1.308     0     0     0     0     0
   15 145    69    68     1     0    20  1.308     0     0     0     0     0
   15 146    70    69     1     0    20  1.308     0     0     0     0     0
   15 147    71    70     1     0    20  1.308     0     0     0     0     0
   15 148    72    71     1     0    20  1.308     0     0     0     0     0
   15 149    73    72     1     0    20  1.308     0     0     0     0     0
   15 150    74    73     1     0    20  1.308     0     0     0     0     0
   15 151    75    74     1     0    20  1.308     0     0     0     0     0
   15 152    76    75     1     0    20  1.308     0     0     0     0     0
   15 153    77    76     1     0    20  1.308     0     0     0     0     0
   15 154    78    77     1     0    20  1.308     0     0     0     0     0
   15 155    79    78     1     0    20  1.308     0     0     0     0     0
   15 156    80    79     1     0    20  1.308     0     0     0     0     0
   15 157    81    80     1     0    20  1.308     0     0     0     0     0
   15 158    82    81     1     0    20  1.308     0     0     0     0     0
   15 159    83    82     1     0    20  1.308     0     0     0     0     0
   15 160    84    83     1     0    20  1.308     0     0     0     0     0
   15 161    85    84     1     0    20  1.308     0     0     0     0     0
   15 162    86    85     1     0    20  1.308     0     0     0     0     0
   15 163    87    86     1     0    20  1.308     0     0     0     0     0
   15 164    88    87     1     0    20  1.308     0     0     0     0     0
   15 165    89    88     1     0    20  1.308     0     0     0     0     0
   15 166    90    89     1     0    20  1.308     0     0     0     0     0
   15 167    91    90     1     0    20  1.308     0     0     0     0     0
   15 168    92    91     1     0    20  1.308     0     0     0     0     0
   15 169    93    92     1     0    20  1.308     0     0     0     0     0
   15 170    94    93     1     0    20  1.308     0     0     0     0     0
   15 171    95    94     1     0    20  1.308     0     0     0     0     0
   15 172    96    95     1     0    20  1.308     0     0     0     0     0
   15 173    97    96     1     0    20  1.308     0     0     0     0     0
   15 174    98    97     1     0    20  1.308     0     0     0     0     0
   15 175    99    98     1     0    20  1.308     0     0     0     0     0
   15 176   100    99     1     0    20  1.308     0     0     0     0     0
   15 177   101   100     1     0    20  1.308     0     0     0     0     0
   15 178   102   101     1     0    20  1.308     0     0     0     0     0
   15 179   103   102     1     0    20  1.308     0     0     0     0     0
   15 180   104   103     1     0    20  1.308     0     0     0     0     0
   15 181   105   104     1     0    20  1.308     0     0     0     0     0
   15 182   106   105     1     0    20  1.308     0     0     0     0     0
   15 183   107   106     1     0    20  1.308     1    40     0     0     0
   15 184   108   107     1     0    20  1.308     1    40     0     0     0
   15 185   109   108     1     0    20  1.308     1    40     0     0     0
   15 186   110   109     1     0    20  1.308     1    40     0     0     0
   15 187   111   110     1     0    20  1.308     1    40     0     0     0
   15 188   112   111     1     0    20  1.308     1    40     0     0     0
   15 189   113   112     1     0    20  1.308     1    40     0     0     0
   15 190   114   113     1     0    20  1.308     1    40     0     0     0
   15 191   115   114     1     0    20  1.308     1    40     0     0     0
   15 192   116   115     1     0    20  1.308     1    40     0     0     0
   15 193   117   116     1     0    20  1.308     1    40     0     0     0
   15 194   118   117     1     0    20  1.308     1    40     0     0     0
   15 195   119   118     1     0    20  1.308     1    40     0     0     0
   15 196   120   119     1     0    20  1.308     1    40     0     0     0
   15 197   121   120     1     0    20  1.308     1    40     0     0     0
   15 198   122   121     1     0    20  1.308     1    40     0     0     0
   15 199   123   122     1     0    20  1.308     1    40     0     0     0
   15 200   124   123     1     0    20  1.308     1    40     0     0     0
   15 201   125   124     1     0    20  1.308     1    40     0     0     0
   15 202   126   125     1     0    20  1.308     1    40     0     0     0
   15 203   127   126     1     0    20  1.308     1    40     0     0     0
   15 204   128   127     1     0    20  1.308     1    40     0     0     0
   15 205   129   128     1     0    20  1.308     1    40     0     0     0
   15 206   130   129     1     0    20  1.308     1    40     0     0     0
   15 207   131   130     1     0    20  1.308     1    40     0     0     0
   15 208   132   131     1     0    20  1.308     1    40     0     0     0
   15 209   133   132     1     0    20  1.308     1    40     0     0     0
   15 210   134   133     1     0    20  1.308     1    40     0     0     0
   15 211   135   134     1     0    20  1.308     1    40     0     0     0
   15 212   136   135     1     0    20  1.308     1    40     0     0     0
   15 213   137   136     1     0    20  1.308     1    40     0     0     0
   15 214   138   137     1     0    20  1.308     1    40     0     0     0
   15 215   139   138     1     0    20  1.308     1    40     0     0     0
   15 216   140   139     1     0    20  1.308     1    40     0     0     0
   15 217   141   140     1     0    20  1.308     1    40     0     0     0
   15 218   142   141     1     0    20  1.308     1    40     0     0     0
   15 219   143   142     1     0    20  1.308     1    40     0     0     0
   15 220   144   143     1     0    20  1.308     1    40     0     0     0
   15 221   145   144     1     0    20  1.308     1    40     0     0     0
   15 222   146   145     1     0    20  1.308     1    40     0     0     0
   15 223   147   146     1     0    20  1.308     1    40     0     0     0
   15 224   148   147     1     0    20  1.308     1    40     0     0     0
   15 225   149   148     1     0    20  1.308     1    40     0     0     0
   15 226   150   149     1     0    20  1.308     1    40     0     0     0
   15 227   151   150     1     0    20  1.308     1    40     0     0     0
   15 228   152   151     1     0    20  1.308     1    40     0     0     0
   15 229   153   152     1     0    20  1.308     1    40     0     0     0
   15 230   154   153     1     0    20  1.308     1    40     0     0     0
   15 231   155   154     1     0    20  1.308     1    40     0     0     0
   15 232   156   155     1     0    20  1.308     1    40     0     0     0
   15 233   157   156     1     0    20  1.308     1    40     0     0     0
   15 234   158   157     1     0    20  1.308     1    40     0     0     0
   15 235   159   158     1     0    20  1.308     1    40     0     0     0
   15 236   160   159     1     0    20  1.308     1    40     0     0     0
   15 237   161   160     1     0    20  1.308     1    40     0     0     0

*DSSAT Cropping System Model Ver. 4.8.5.000 -release  FEB 02, 2026 11:46:55

*RUN   4        : 4                         WHAPS048 TUDU1501    4
 MODEL          : WHAPS048 - Wheat
 EXPERIMENT     : TUDU1501 WH
 DATA PATH      :
 TREATMENT  4   : 4                         WHAPS048
  

@YEAR DOY   DAS   DAP  TL#C  TLDD DLYR3   TLBD  NAPC  NICM  R#AC RESNC RESPC
   15 077     1     0     1     4    20  1.332     0     0     0     0     0
   15 078     2     1     1     0    20  1.332     0     0     0     0     0
   15 079     3     2     1     0    20  1.332     0     0     0     0     0
   15 080     4     3     1     0    20  1.331     0     0     0     0     0
   15 081     5     4     1     0    20  1.331     0     0     0     0     0
   15 082     6     5     1     0    20  1.331     0     0     0     0     0
   15 083     7     6     1     0    20  1.331     0     0     0     0     0
   15 084     8     7     1     0    20  1.331     0     0     0     0     0
   15 085     9     8     1     0    20  1.331     0     0     0     0     0
   15 086    10     9     1     0    20  1.330     0     0     0     0     0
   15 087    11    10     1     0    20  1.330     0     0     0     0     0
   15 088    12    11     1     0    20  1.330     0     0     0     0     0
   15 089    13    12     1     0    20  1.328     0     0     0     0     0
   15 090    14    13     1     0    20  1.326     0     0     0     0     0
   15 091    15    14     1     0    20  1.325     0     0     0     0     0
   15 092    16    15     1     0    20  1.324     0     0     0     0     0
   15 093    17    16     1     0    20  1.324     0     0     0     0     0
   15 094    18    17     1     0    20  1.323     0     0     0     0     0
   15 095    19    18     1     0    20  1.323     0     0     0     0     0
   15 096    20    19     1     0    20  1.323     0     0     0     0     0
   15 097    21    20     1     0    20  1.323     0     0     0     0     0
   15 098    22    21     1     0    20  1.323     1    40     0     0     0
   15 099    23    22     1     0    20  1.323     1    40     0     0     0
   15 100    24    23     1     0    20  1.323     1    40     0     0     0
   15 101    25    24     1     0    20  1.323     1    40     0     0     0
   15 102    26    25     1     0    20  1.323     1    40     0     0     0
   15 103    27    26     1     0    20  1.323     1    40     0     0     0
   15 104    28    27     1     0    20  1.323     1    40     0     0     0
   15 105    29    28     1     0    20  1.323     1    40     0     0     0
   15 106    30    29     1     0    20  1.323     1    40     0     0     0
   15 107    31    30     1     0    20  1.317     1    40     0     0     0
   15 108    32    31     1     0    20  1.317     1    40     0     0     0
   15 109    33    32     1     0    20  1.317     1    40     0     0     0
   15 110    34    33     1     0    20  1.317     1    40     0     0     0
   15 111    35    34     1     0    20  1.317     1    40     0     0     0
   15 112    36    35     1     0    20  1.317     1    40     0     0     0
   15 113    37    36     1     0    20  1.317     1    40     0     0     0
   15 114    38    37     1     0    20  1.317     1    40     0     0     0
   15 115    39    38     1     0    20  1.317     1    40     0     0     0
   15 116    40    39     1     0    20  1.317     1    40     0     0     0
   15 117    41    40     1     0    20  1.316     1    40     0     0     0
   15 118    42    41     1     0    20  1.315     1    40     0     0     0
   15 119    43    42     1     0    20  1.315     1    40     0     0     0
   15 120    44    43     1     0    20  1.315     1    40     0     0     0
   15 121    45    44     1     0    20  1.312     1    40     0     0     0
   15 122    46    45     1     0    20  1.312     1    40     0     0     0
   15 123    47    46     1     0    20  1.311     1    40     0     0     0
   15 124    48    47     1     0    20  1.311     1    40     0     0     0
   15 125    49    48     1     0    20  1.311     1    40     0     0     0
   15 126    50    49     1     0    20  1.308     1    40     0     0     0
   15 127    51    50     1     0    20  1.308     1    40     0     0     0
   15 128    52    51     1     0    20  1.308     1    40     0     0     0
   15 129    53    52     1     0    20  1.308     1    40     0     0     0
   15 130    54    53     1     0    20  1.308     1    40     0     0     0
   15 131    55    54     1     0    20  1.308     1    40     0     0     0
   15 132    56    55     1     0    20  1.308     1    40     0     0     0
   15 133    57    56     1     0    20  1.308     1    40     0     0     0
   15 134    58    57     1     0    20  1.308     1    40     0     0     0
   15 135    59    58     1     0    20  1.308     1    40     0     0     0
   15 136    60    59     1     0    20  1.308     1    40     0     0     0
   15 137    61    60     1     0    20  1.308     1    40     0     0     0
   15 138    62    61     1     0    20  1.308     1    40     0     0     0
   15 139    63    62     1     0    20  1.308     1    40     0     0     0
   15 140    64    63     1     0    20  1.308     1    40     0     0     0
   15 141    65    64     1     0    20  1.308     1    40     0     0     0
   15 142    66    65     1     0    20  1.308     1    40     0     0     0
   15 143    67    66     1     0    20  1.308     1    40     0     0     0
   15 144    68    67     1     0    20  1.308     1    40     0     0     0
   15 145    69    68     1     0    20  1.308     1    40     0     0     0
   15 146    70    69     1     0    20  1.308     1    40     0     0     0
   15 147    71    70     1     0    20  1.308     1    40     0     0     0
   15 148    72    71     1     0    20  1.308     1    40     0     0     0
   15 149    73    72     1     0    20  1.308     1    40     0     0     0
   15 150    74    73     1     0    20  1.308     1    40     0     0     0
   15 151    75    74     1     0    20  1.308     1    40     0     0     0
   15 152    76    75     1     0    20  1.308     2    80     0     0     0
   15 153    77    76     1     0    20  1.308     2    80     0     0     0
   15 154    78    77     1     0    20  1.308     2    80     0     0     0
   15 155    79    78     1     0    20  1.308     2    80     0     0     0
   15 156    80    79     1     0    20  1.308     2    80     0     0     0
   15 157    81    80     1     0    20  1.308     2    80     0     0     0
   15 158    82    81     1     0    20  1.308     2    80     0     0     0
   15 159    83    82     1     0    20  1.308     2    80     0     0     0
   15 160    84    83     1     0    20  1.308     2    80     0     0     0
   15 161    85    84     1     0    20  1.308     2    80     0     0     0
   15 162    86    85     1     0    20  1.308     2    80     0     0     0
   15 163    87    86     1     0    20  1.308     2    80     0     0     0
   15 164    88    87     1     0    20  1.308     2    80     0     0     0
   15 165    89    88     1     0    20  1.308     2    80     0     0     0
   15 166    90    89     1     0    20  1.308     2    80     0     0     0
   15 167    91    90     1     0    20  1.308     2    80     0     0     0
   15 168    92    91     1     0    20  1.308     2    80     0     0     0
   15 169    93    92     1     0    20  1.308     2    80     0     0     0
   15 170    94    93     1     0    20  1.308     2    80     0     0     0
   15 171    95    94     1     0    20  1.308     2    80     0     0     0
   15 172    96    95     1     0    20  1.308     2    80     0     0     0
   15 173    97    96     1     0    20  1.308     2    80     0     0     0
   15 174    98    97     1     0    20  1.308     2    80     0     0     0
   15 175    99    98     1     0    20  1.308     2    80     0     0     0
   15 176   100    99     1     0    20  1.308     2    80     0     0     0
   15 177   101   100     1     0    20  1.308     2    80     0     0     0
   15 178   102   101     1     0    20  1.308     2    80     0     0     0
   15 179   103   102     1     0    20  1.308     2    80     0     0     0
   15 180   104   103     1     0    20  1.308     2    80     0     0     0
   15 181   105   104     1     0    20  1.308     2    80     0     0     0
   15 182   106   105     1     0    20  1.308     2    80     0     0     0
   15 183   107   106     1     0    20  1.308     3   120     0     0     0
   15 184   108   107     1     0    20  1.308     3   120     0     0     0
   15 185   109   108     1     0    20  1.308     3   120     0     0     0
   15 186   110   109     1     0    20  1.308     3   120     0     0     0
   15 187   111   110     1     0    20  1.308     3   120     0     0     0
   15 188   112   111     1     0    20  1.308     3   120     0     0     0
   15 189   113   112     1     0    20  1.308     3   120     0     0     0
   15 190   114   113     1     0    20  1.308     3   120     0     0     0
   15 191   115   114     1     0    20  1.308     3   120     0     0     0
   15 192   116   115     1     0    20  1.308     3   120     0     0     0
   15 193   117   116     1     0    20  1.308     3   120     0     0     0
   15 194   118   117     1     0    20  1.308     3   120     0     0     0
   15 195   119   118     1     0    20  1.308     3   120     0     0     0
   15 196   120   119     1     0    20  1.308     3   120     0     0     0
   15 197   121   120     1     0    20  1.308     3   120     0     0     0
   15 198   122   121     1     0    20  1.308     3   120     0     0     0
   15 199   123   122     1     0    20  1.308     3   120     0     0     0
   15 200   124   123     1     0    20  1.308     3   120     0     0     0
   15 201   125   124     1     0    20  1.308     3   120     0     0     0
   15 202   126   125     1     0    20  1.308     3   120     0     0     0
   15 203   127   126     1     0    20  1.308     3   120     0     0     0
   15 204   128   127     1     0    20  1.308     3   120     0     0     0
   15 205   129   128     1     0    20  1.308     3   120     0     0     0
   15 206   130   129     1     0    20  1.308     3   120     0     0     0
   15 207   131   130     1     0    20  1.308     3   120     0     0     0
   15 208   132   131     1     0    20  1.308     3   120     0     0     0
   15 209   133   132     1     0    20  1.308     3   120     0     0     0
   15 210   134   133     1     0    20  1.308     3   120     0     0     0
   15 211   135   134     1     0    20  1.308     3   120     0     0     0
   15 212   136   135     1     0    20  1.308     3   120     0     0     0
   15 213   137   136     1     0    20  1.308     3   120     0     0     0
   15 214   138   137     1     0    20  1.308     3   120     0     0     0
   15 215   139   138     1     0    20  1.308     3   120     0     0     0
   15 216   140   139     1     0    20  1.308     3   120     0     0     0
   15 217   141   140     1     0    20  1.308     3   120     0     0     0
   15 218   142   141     1     0    20  1.308     3   120     0     0     0
   15 219   143   142     1     0    20  1.308     3   120     0     0     0
   15 220   144   143     1     0    20  1.308     3   120     0     0     0
   15 221   145   144     1     0    20  1.308     3   120     0     0     0
   15 222   146   145     1     0    20  1.308     3   120     0     0     0
   15 223   147   146     1     0    20  1.308     3   120     0     0     0
   15 224   148   147     1     0    20  1.308     3   120     0     0     0
   15 225   149   148     1     0    20  1.308     3   120     0     0     0
   15 226   150   149     1     0    20  1.308     3   120     0     0     0
   15 227   151   150     1     0    20  1.308     3   120     0     0     0
   15 228   152   151     1     0    20  1.308     3   120     0     0     0
   15 229   153   152     1     0    20  1.308     3   120     0     0     0
   15 230   154   153     1     0    20  1.308     3   120     0     0     0
   15 231   155   154     1     0    20  1.308     3   120     0     0     0
   15 232   156   155     1     0    20  1.308     3   120     0     0     0
   15 233   157   156     1     0    20  1.308     3   120     0     0     0
   15 234   158   157     1     0    20  1.308     3   120     0     0     0
   15 235   159   158     1     0    20  1.308     3   120     0     0     0
   15 236   160   159     1     0    20  1.308     3   120     0     0     0
   15 237   161   160     1     0    20  1.308     3   120     0     0     0

*DSSAT Cropping System Model Ver. 4.8.5.000 -release  FEB 02, 2026 11:46:56

*RUN   5        : 5                         WHAPS048 TUDU1501    5
 MODEL          : WHAPS048 - Wheat
 EXPERIMENT     : TUDU1501 WH
 DATA PATH      :
 TREATMENT  5   : 5                         WHAPS048
  

@YEAR DOY   DAS   DAP  TL#C  TLDD DLYR3   TLBD  NAPC  NICM  R#AC RESNC RESPC
   15 077     1     0     1     4    20  1.332     0     0     0     0     0
   15 078     2     1     1     0    20  1.332     0     0     0     0     0
   15 079     3     2     1     0    20  1.332     0     0     0     0     0
   15 080     4     3     1     0    20  1.331     0     0     0     0     0
   15 081     5     4     1     0    20  1.331     0     0     0     0     0
   15 082     6     5     1     0    20  1.331     0     0     0     0     0
   15 083     7     6     1     0    20  1.331     0     0     0     0     0
   15 084     8     7     1     0    20  1.331     0     0     0     0     0
   15 085     9     8     1     0    20  1.331     0     0     0     0     0
   15 086    10     9     1     0    20  1.330     0     0     0     0     0
   15 087    11    10     1     0    20  1.330     0     0     0     0     0
   15 088    12    11     1     0    20  1.330     0     0     0     0     0
   15 089    13    12     1     0    20  1.328     0     0     0     0     0
   15 090    14    13     1     0    20  1.326     0     0     0     0     0
   15 091    15    14     1     0    20  1.325     0     0     0     0     0
   15 092    16    15     1     0    20  1.324     0     0     0     0     0
   15 093    17    16     1     0    20  1.324     0     0     0     0     0
   15 094    18    17     1     0    20  1.323     0     0     0     0     0
   15 095    19    18     1     0    20  1.323     0     0     0     0     0
   15 096    20    19     1     0    20  1.323     0     0     0     0     0
   15 097    21    20     1     0    20  1.323     0     0     0     0     0
   15 098    22    21     1     0    20  1.323     1    60     0     0     0
   15 099    23    22     1     0    20  1.323     1    60     0     0     0
   15 100    24    23     1     0    20  1.323     1    60     0     0     0
   15 101    25    24     1     0    20  1.323     1    60     0     0     0
   15 102    26    25     1     0    20  1.323     1    60     0     0     0
   15 103    27    26     1     0    20  1.323     1    60     0     0     0
   15 104    28    27     1     0    20  1.323     1    60     0     0     0
   15 105    29    28     1     0    20  1.323     1    60     0     0     0
   15 106    30    29     1     0    20  1.323     1    60     0     0     0
   15 107    31    30     1     0    20  1.317     1    60     0     0     0
   15 108    32    31     1     0    20  1.317     1    60     0     0     0
   15 109    33    32     1     0    20  1.317     1    60     0     0     0
   15 110    34    33     1     0    20  1.317     1    60     0     0     0
   15 111    35    34     1     0    20  1.317     1    60     0     0     0
   15 112    36    35     1     0    20  1.317     1    60     0     0     0
   15 113    37    36     1     0    20  1.317     1    60     0     0     0
   15 114    38    37     1     0    20  1.317     1    60     0     0     0
   15 115    39    38     1     0    20  1.317     1    60     0     0     0
   15 116    40    39     1     0    20  1.317     1    60     0     0     0
   15 117    41    40     1     0    20  1.316     1    60     0     0     0
   15 118    42    41     1     0    20  1.315     1    60     0     0     0
   15 119    43    42     1     0    20  1.315     1    60     0     0     0
   15 120    44    43     1     0    20  1.315     1    60     0     0     0
   15 121    45    44     1     0    20  1.312     1    60     0     0     0
   15 122    46    45     1     0    20  1.312     1    60     0     0     0
   15 123    47    46     1     0    20  1.311     1    60     0     0     0
   15 124    48    47     1     0    20  1.311     1    60     0     0     0
   15 125    49    48     1     0    20  1.311     1    60     0     0     0
   15 126    50    49     1     0    20  1.308     1    60     0     0     0
   15 127    51    50     1     0    20  1.308     1    60     0     0     0
   15 128    52    51     1     0    20  1.308     1    60     0     0     0
   15 129    53    52     1     0    20  1.308     1    60     0     0     0
   15 130    54    53     1     0    20  1.308     1    60     0     0     0
   15 131    55    54     1     0    20  1.308     1    60     0     0     0
   15 132    56    55     1     0    20  1.308     1    60     0     0     0
   15 133    57    56     1     0    20  1.308     1    60     0     0     0
   15 134    58    57     1     0    20  1.308     1    60     0     0     0
   15 135    59    58     1     0    20  1.308     1    60     0     0     0
   15 136    60    59     1     0    20  1.308     1    60     0     0     0
   15 137    61    60     1     0    20  1.308     1    60     0     0     0
   15 138    62    61     1     0    20  1.308     1    60     0     0     0
   15 139    63    62     1     0    20  1.308     1    60     0     0     0
   15 140    64    63     1     0    20  1.308     1    60     0     0     0
   15 141    65    64     1     0    20  1.308     1    60     0     0     0
   15 142    66    65     1     0    20  1.308     1    60     0     0     0
   15 143    67    66     1     0    20  1.308     1    60     0     0     0
   15 144    68    67     1     0    20  1.308     1    60     0     0     0
   15 145    69    68     1     0    20  1.308     1    60     0     0     0
   15 146    70    69     1     0    20  1.308     1    60     0     0     0
   15 147    71    70     1     0    20  1.308     1    60     0     0     0
   15 148    72    71     1     0    20  1.308     1    60     0     0     0
   15 149    73    72     1     0    20  1.308     1    60     0     0     0
   15 150    74    73     1     0    20  1.308     1    60     0     0     0
   15 151    75    74     1     0    20  1.308     1    60     0     0     0
   15 152    76    75     1     0    20  1.308     2   120     0     0     0
   15 153    77    76     1     0    20  1.308     2   120     0     0     0
   15 154    78    77     1     0    20  1.308     2   120     0     0     0
   15 155    79    78     1     0    20  1.308     2   120     0     0     0
   15 156    80    79     1     0    20  1.308     2   120     0     0     0
   15 157    81    80     1     0    20  1.308     2   120     0     0     0
   15 158    82    81     1     0    20  1.308     2   120     0     0     0
   15 159    83    82     1     0    20  1.308     2   120     0     0     0
   15 160    84    83     1     0    20  1.308     2   120     0     0     0
   15 161    85    84     1     0    20  1.308     2   120     0     0     0
   15 162    86    85     1     0    20  1.308     2   120     0     0     0
   15 163    87    86     1     0    20  1.308     2   120     0     0     0
   15 164    88    87     1     0    20  1.308     2   120     0     0     0
   15 165    89    88     1     0    20  1.308     2   120     0     0     0
   15 166    90    89     1     0    20  1.308     2   120     0     0     0
   15 167    91    90     1     0    20  1.308     2   120     0     0     0
   15 168    92    91     1     0    20  1.308     2   120     0     0     0
   15 169    93    92     1     0    20  1.308     2   120     0     0     0
   15 170    94    93     1     0    20  1.308     2   120     0     0     0
   15 171    95    94     1     0    20  1.308     2   120     0     0     0
   15 172    96    95     1     0    20  1.308     2   120     0     0     0
   15 173    97    96     1     0    20  1.308     2   120     0     0     0
   15 174    98    97     1     0    20  1.308     2   120     0     0     0
   15 175    99    98     1     0    20  1.308     2   120     0     0     0
   15 176   100    99     1     0    20  1.308     2   120     0     0     0
   15 177   101   100     1     0    20  1.308     2   120     0     0     0
   15 178   102   101     1     0    20  1.308     2   120     0     0     0
   15 179   103   102     1     0    20  1.308     2   120     0     0     0
   15 180   104   103     1     0    20  1.308     2   120     0     0     0
   15 181   105   104     1     0    20  1.308     2   120     0     0     0
   15 182   106   105     1     0    20  1.308     2   120     0     0     0
   15 183   107   106     1     0    20  1.308     3   120     0     0     0
   15 184   108   107     1     0    20  1.308     3   120     0     0     0
   15 185   109   108     1     0    20  1.308     3   120     0     0     0
   15 186   110   109     1     0    20  1.308     3   120     0     0     0
   15 187   111   110     1     0    20  1.308     3   120     0     0     0
   15 188   112   111     1     0    20  1.308     3   120     0     0     0
   15 189   113   112     1     0    20  1.308     3   120     0     0     0
   15 190   114   113     1     0    20  1.308     3   120     0     0     0
   15 191   115   114     1     0    20  1.308     3   120     0     0     0
   15 192   116   115     1     0    20  1.308     3   120     0     0     0
   15 193   117   116     1     0    20  1.308     3   120     0     0     0
   15 194   118   117     1     0    20  1.308     3   120     0     0     0
   15 195   119   118     1     0    20  1.308     3   120     0     0     0
   15 196   120   119     1     0    20  1.308     3   120     0     0     0
   15 197   121   120     1     0    20  1.308     3   120     0     0     0
   15 198   122   121     1     0    20  1.308     3   120     0     0     0
   15 199   123   122     1     0    20  1.308     3   120     0     0     0
   15 200   124   123     1     0    20  1.308     3   120     0     0     0
   15 201   125   124     1     0    20  1.308     3   120     0     0     0
   15 202   126   125     1     0    20  1.308     3   120     0     0     0
   15 203   127   126     1     0    20  1.308     3   120     0     0     0
   15 204   128   127     1     0    20  1.308     3   120     0     0     0
   15 205   129   128     1     0    20  1.308     3   120     0     0     0
   15 206   130   129     1     0    20  1.308     3   120     0     0     0
   15 207   131   130     1     0    20  1.308     3   120     0     0     0
   15 208   132   131     1     0    20  1.308     3   120     0     0     0
   15 209   133   132     1     0    20  1.308     3   120     0     0     0
   15 210   134   133     1     0    20  1.308     3   120     0     0     0
   15 211   135   134     1     0    20  1.308     3   120     0     0     0
   15 212   136   135     1     0    20  1.308     3   120     0     0     0
   15 213   137   136     1     0    20  1.308     3   120     0     0     0
   15 214   138   137     1     0    20  1.308     3   120     0     0     0
   15 215   139   138     1     0    20  1.308     3   120     0     0     0
   15 216   140   139     1     0    20  1.308     3   120     0     0     0
   15 217   141   140     1     0    20  1.308     3   120     0     0     0
   15 218   142   141     1     0    20  1.308     3   120     0     0     0
   15 219   143   142     1     0    20  1.308     3   120     0     0     0
   15 220   144   143     1     0    20  1.308     3   120     0     0     0
   15 221   145   144     1     0    20  1.308     3   120     0     0     0
   15 222   146   145     1     0    20  1.308     3   120     0     0     0
   15 223   147   146     1     0    20  1.308     3   120     0     0     0
   15 224   148   147     1     0    20  1.308     3   120     0     0     0
   15 225   149   148     1     0    20  1.308     3   120     0     0     0
   15 226   150   149     1     0    20  1.308     3   120     0     0     0
   15 227   151   150     1     0    20  1.308     3   120     0     0     0
   15 228   152   151     1     0    20  1.308     3   120     0     0     0
   15 229   153   152     1     0    20  1.308     3   120     0     0     0
   15 230   154   153     1     0    20  1.308     3   120     0     0     0
   15 231   155   154     1     0    20  1.308     3   120     0     0     0
   15 232   156   155     1     0    20  1.308     3   120     0     0     0
   15 233   157   156     1     0    20  1.308     3   120     0     0     0
   15 234   158   157     1     0    20  1.308     3   120     0     0     0
   15 235   159   158     1     0    20  1.308     3   120     0     0     0
   15 236   160   159     1     0    20  1.308     3   120     0     0     0
   15 237   161   160     1     0    20  1.308     3   120     0     0     0

*DSSAT Cropping System Model Ver. 4.8.5.000 -release  FEB 02, 2026 11:46:56

*RUN   6        : 6                         WHAPS048 TUDU1501    6
 MODEL          : WHAPS048 - Wheat
 EXPERIMENT     : TUDU1501 WH
 DATA PATH      :
 TREATMENT  6   : 6                         WHAPS048
  

@YEAR DOY   DAS   DAP  TL#C  TLDD DLYR3   TLBD  NAPC  NICM  R#AC RESNC RESPC
   15 077     1     0     1     4    20  1.332     0     0     0     0     0
   15 078     2     1     1     0    20  1.332     0     0     0     0     0
   15 079     3     2     1     0    20  1.332     0     0     0     0     0
   15 080     4     3     1     0    20  1.331     0     0     0     0     0
   15 081     5     4     1     0    20  1.331     0     0     0     0     0
   15 082     6     5     1     0    20  1.331     0     0     0     0     0
   15 083     7     6     1     0    20  1.331     0     0     0     0     0
   15 084     8     7     1     0    20  1.331     0     0     0     0     0
   15 085     9     8     1     0    20  1.331     0     0     0     0     0
   15 086    10     9     1     0    20  1.330     0     0     0     0     0
   15 087    11    10     1     0    20  1.330     0     0     0     0     0
   15 088    12    11     1     0    20  1.330     0     0     0     0     0
   15 089    13    12     1     0    20  1.328     0     0     0     0     0
   15 090    14    13     1     0    20  1.326     0     0     0     0     0
   15 091    15    14     1     0    20  1.325     0     0     0     0     0
   15 092    16    15     1     0    20  1.324     0     0     0     0     0
   15 093    17    16     1     0    20  1.324     0     0     0     0     0
   15 094    18    17     1     0    20  1.323     0     0     0     0     0
   15 095    19    18     1     0    20  1.323     0     0     0     0     0
   15 096    20    19     1     0    20  1.323     0     0     0     0     0
   15 097    21    20     1     0    20  1.323     0     0     0     0     0
   15 098    22    21     1     0    20  1.323     1    40     0     0     0
   15 099    23    22     1     0    20  1.323     1    40     0     0     0
   15 100    24    23     1     0    20  1.323     1    40     0     0     0
   15 101    25    24     1     0    20  1.323     1    40     0     0     0
   15 102    26    25     1     0    20  1.323     1    40     0     0     0
   15 103    27    26     1     0    20  1.323     1    40     0     0     0
   15 104    28    27     1     0    20  1.323     1    40     0     0     0
   15 105    29    28     1     0    20  1.323     1    40     0     0     0
   15 106    30    29     1     0    20  1.323     1    40     0     0     0
   15 107    31    30     1     0    20  1.317     1    40     0     0     0
   15 108    32    31     1     0    20  1.317     1    40     0     0     0
   15 109    33    32     1     0    20  1.317     1    40     0     0     0
   15 110    34    33     1     0    20  1.317     1    40     0     0     0
   15 111    35    34     1     0    20  1.317     1    40     0     0     0
   15 112    36    35     1     0    20  1.317     1    40     0     0     0
   15 113    37    36     1     0    20  1.317     1    40     0     0     0
   15 114    38    37     1     0    20  1.317     1    40     0     0     0
   15 115    39    38     1     0    20  1.317     1    40     0     0     0
   15 116    40    39     1     0    20  1.317     1    40     0     0     0
   15 117    41    40     1     0    20  1.316     1    40     0     0     0
   15 118    42    41     1     0    20  1.315     1    40     0     0     0
   15 119    43    42     1     0    20  1.315     1    40     0     0     0
   15 120    44    43     1     0    20  1.315     1    40     0     0     0
   15 121    45    44     1     0    20  1.312     1    40     0     0     0
   15 122    46    45     1     0    20  1.312     1    40     0     0     0
   15 123    47    46     1     0    20  1.311     1    40     0     0     0
   15 124    48    47     1     0    20  1.311     1    40     0     0     0
   15 125    49    48     1     0    20  1.311     1    40     0     0     0
   15 126    50    49     1     0    20  1.308     1    40     0     0     0
   15 127    51    50     1     0    20  1.308     1    40     0     0     0
   15 128    52    51     1     0    20  1.308     1    40     0     0     0
   15 129    53    52     1     0    20  1.308     1    40     0     0     0
   15 130    54    53     1     0    20  1.308     1    40     0     0     0
   15 131    55    54     1     0    20  1.308     1    40     0     0     0
   15 132    56    55     1     0    20  1.308     1    40     0     0     0
   15 133    57    56     1     0    20  1.308     1    40     0     0     0
   15 134    58    57     1     0    20  1.308     1    40     0     0     0
   15 135    59    58     1     0    20  1.308     1    40     0     0     0
   15 136    60    59     1     0    20  1.308     1    40     0     0     0
   15 137    61    60     1     0    20  1.308     1    40     0     0     0
   15 138    62    61     1     0    20  1.308     1    40     0     0     0
   15 139    63    62     1     0    20  1.308     1    40     0     0     0
   15 140    64    63     1     0    20  1.308     1    40     0     0     0
   15 141    65    64     1     0    20  1.308     1    40     0     0     0
   15 142    66    65     1     0    20  1.308     1    40     0     0     0
   15 143    67    66     1     0    20  1.308     1    40     0     0     0
   15 144    68    67     1     0    20  1.308     1    40     0     0     0
   15 145    69    68     1     0    20  1.308     1    40     0     0     0
   15 146    70    69     1     0    20  1.308     1    40     0     0     0
   15 147    71    70     1     0    20  1.308     1    40     0     0     0
   15 148    72    71     1     0    20  1.308     1    40     0     0     0
   15 149    73    72     1     0    20  1.308     1    40     0     0     0
   15 150    74    73     1     0    20  1.308     1    40     0     0     0
   15 151    75    74     1     0    20  1.308     1    40     0     0     0
   15 152    76    75     1     0    20  1.308     2    80     0     0     0
   15 153    77    76     1     0    20  1.308     2    80     0     0     0
   15 154    78    77     1     0    20  1.308     2    80     0     0     0
   15 155    79    78     1     0    20  1.308     2    80     0     0     0
   15 156    80    79     1     0    20  1.308     2    80     0     0     0
   15 157    81    80     1     0    20  1.308     2    80     0     0     0
   15 158    82    81     1     0    20  1.308     2    80     0     0     0
   15 159    83    82     1     0    20  1.308     2    80     0     0     0
   15 160    84    83     1     0    20  1.308     2    80     0     0     0
   15 161    85    84     1     0    20  1.308     2    80     0     0     0
   15 162    86    85     1     0    20  1.308     2    80     0     0     0
   15 163    87    86     1     0    20  1.308     2    80     0     0     0
   15 164    88    87     1     0    20  1.308     2    80     0     0     0
   15 165    89    88     1     0    20  1.308     2    80     0     0     0
   15 166    90    89     1     0    20  1.308     2    80     0     0     0
   15 167    91    90     1     0    20  1.308     2    80     0     0     0
   15 168    92    91     1     0    20  1.308     2    80     0     0     0
   15 169    93    92     1     0    20  1.308     2    80     0     0     0
   15 170    94    93     1     0    20  1.308     2    80     0     0     0
   15 171    95    94     1     0    20  1.308     2    80     0     0     0
   15 172    96    95     1     0    20  1.308     2    80     0     0     0
   15 173    97    96     1     0    20  1.308     2    80     0     0     0
   15 174    98    97     1     0    20  1.308     2    80     0     0     0
   15 175    99    98     1     0    20  1.308     2    80     0     0     0
   15 176   100    99     1     0    20  1.308     2    80     0     0     0
   15 177   101   100     1     0    20  1.308     2    80     0     0     0
   15 178   102   101     1     0    20  1.308     2    80     0     0     0
   15 179   103   102     1     0    20  1.308     2    80     0     0     0
   15 180   104   103     1     0    20  1.308     2    80     0     0     0
   15 181   105   104     1     0    20  1.308     2    80     0     0     0
   15 182   106   105     1     0    20  1.308     2    80     0     0     0
   15 183   107   106     1     0    20  1.308     3   120     0     0     0
   15 184   108   107     1     0    20  1.308     3   120     0     0     0
   15 185   109   108     1     0    20  1.308     3   120     0     0     0
   15 186   110   109     1     0    20  1.308     3   120     0     0     0
   15 187   111   110     1     0    20  1.308     3   120     0     0     0
   15 188   112   111     1     0    20  1.308     3   120     0     0     0
   15 189   113   112     1     0    20  1.308     3   120     0     0     0
   15 190   114   113     1     0    20  1.308     3   120     0     0     0
   15 191   115   114     1     0    20  1.308     3   120     0     0     0
   15 192   116   115     1     0    20  1.308     3   120     0     0     0
   15 193   117   116     1     0    20  1.308     3   120     0     0     0
   15 194   118   117     1     0    20  1.308     3   120     0     0     0
   15 195   119   118     1     0    20  1.308     3   120     0     0     0
   15 196   120   119     1     0    20  1.308     3   120     0     0     0
   15 197   121   120     1     0    20  1.308     3   120     0     0     0
   15 198   122   121     1     0    20  1.308     3   120     0     0     0
   15 199   123   122     1     0    20  1.308     3   120     0     0     0
   15 200   124   123     1     0    20  1.308     3   120     0     0     0
   15 201   125   124     1     0    20  1.308     3   120     0     0     0
   15 202   126   125     1     0    20  1.308     3   120     0     0     0
   15 203   127   126     1     0    20  1.308     3   120     0     0     0
   15 204   128   127     1     0    20  1.308     3   120     0     0     0
   15 205   129   128     1     0    20  1.308     3   120     0     0     0
   15 206   130   129     1     0    20  1.308     3   120     0     0     0
   15 207   131   130     1     0    20  1.308     3   120     0     0     0
   15 208   132   131     1     0    20  1.308     3   120     0     0     0
   15 209   133   132     1     0    20  1.308     3   120     0     0     0
   15 210   134   133     1     0    20  1.308     3   120     0     0     0
   15 211   135   134     1     0    20  1.308     3   120     0     0     0
   15 212   136   135     1     0    20  1.308     3   120     0     0     0
   15 213   137   136     1     0    20  1.308     3   120     0     0     0
   15 214   138   137     1     0    20  1.308     3   120     0     0     0
   15 215   139   138     1     0    20  1.308     3   120     0     0     0
   15 216   140   139     1     0    20  1.308     3   120     0     0     0
   15 217   141   140     1     0    20  1.308     3   120     0     0     0
   15 218   142   141     1     0    20  1.308     3   120     0     0     0
   15 219   143   142     1     0    20  1.308     3   120     0     0     0
   15 220   144   143     1     0    20  1.308     3   120     0     0     0
   15 221   145   144     1     0    20  1.308     3   120     0     0     0
   15 222   146   145     1     0    20  1.308     3   120     0     0     0
   15 223   147   146     1     0    20  1.308     3   120     0     0     0
   15 224   148   147     1     0    20  1.308     3   120     0     0     0
   15 225   149   148     1     0    20  1.308     3   120     0     0     0
   15 226   150   149     1     0    20  1.308     3   120     0     0     0
   15 227   151   150     1     0    20  1.308     3   120     0     0     0
   15 228   152   151     1     0    20  1.308     3   120     0     0     0
   15 229   153   152     1     0    20  1.308     3   120     0     0     0
   15 230   154   153     1     0    20  1.308     3   120     0     0     0
   15 231   155   154     1     0    20  1.308     3   120     0     0     0
   15 232   156   155     1     0    20  1.308     3   120     0     0     0
   15 233   157   156     1     0    20  1.308     3   120     0     0     0
   15 234   158   157     1     0    20  1.308     3   120     0     0     0
   15 235   159   158     1     0    20  1.308     3   120     0     0     0
   15 236   160   159     1     0    20  1.308     3   120     0     0     0
   15 237   161   160     1     0    20  1.308     3   120     0     0     0

*DSSAT Cropping System Model Ver. 4.8.5.000 -release  FEB 02, 2026 11:46:56

*RUN   7        : 7                         WHAPS048 TUDU1501    7
 MODEL          : WHAPS048 - Wheat
 EXPERIMENT     : TUDU1501 WH
 DATA PATH      :
 TREATMENT  7   : 7                         WHAPS048
  

@YEAR DOY   DAS   DAP  TL#C  TLDD DLYR3   TLBD  NAPC  NICM  R#AC RESNC RESPC
   15 077     1     0     1     4    20  1.332     0     0     0     0     0
   15 078     2     1     1     0    20  1.332     0     0     0     0     0
   15 079     3     2     1     0    20  1.332     0     0     0     0     0
   15 080     4     3     1     0    20  1.331     0     0     0     0     0
   15 081     5     4     1     0    20  1.331     0     0     0     0     0
   15 082     6     5     1     0    20  1.331     0     0     0     0     0
   15 083     7     6     1     0    20  1.331     0     0     0     0     0
   15 084     8     7     1     0    20  1.331     0     0     0     0     0
   15 085     9     8     1     0    20  1.331     0     0     0     0     0
   15 086    10     9     1     0    20  1.330     0     0     0     0     0
   15 087    11    10     1     0    20  1.330     0     0     0     0     0
   15 088    12    11     1     0    20  1.330     0     0     0     0     0
   15 089    13    12     1     0    20  1.328     0     0     0     0     0
   15 090    14    13     1     0    20  1.326     0     0     0     0     0
   15 091    15    14     1     0    20  1.325     0     0     0     0     0
   15 092    16    15     1     0    20  1.324     0     0     0     0     0
   15 093    17    16     1     0    20  1.324     0     0     0     0     0
   15 094    18    17     1     0    20  1.323     0     0     0     0     0
   15 095    19    18     1     0    20  1.323     0     0     0     0     0
   15 096    20    19     1     0    20  1.323     0     0     0     0     0
   15 097    21    20     1     0    20  1.323     0     0     0     0     0
   15 098    22    21     1     0    20  1.323     1    60     0     0     0
   15 099    23    22     1     0    20  1.323     1    60     0     0     0
   15 100    24    23     1     0    20  1.323     1    60     0     0     0
   15 101    25    24     1     0    20  1.323     1    60     0     0     0
   15 102    26    25     1     0    20  1.323     1    60     0     0     0
   15 103    27    26     1     0    20  1.323     1    60     0     0     0
   15 104    28    27     1     0    20  1.323     1    60     0     0     0
   15 105    29    28     1     0    20  1.323     1    60     0     0     0
   15 106    30    29     1     0    20  1.323     1    60     0     0     0
   15 107    31    30     1     0    20  1.317     1    60     0     0     0
   15 108    32    31     1     0    20  1.317     1    60     0     0     0
   15 109    33    32     1     0    20  1.317     1    60     0     0     0
   15 110    34    33     1     0    20  1.317     1    60     0     0     0
   15 111    35    34     1     0    20  1.317     1    60     0     0     0
   15 112    36    35     1     0    20  1.317     1    60     0     0     0
   15 113    37    36     1     0    20  1.317     1    60     0     0     0
   15 114    38    37     1     0    20  1.317     1    60     0     0     0
   15 115    39    38     1     0    20  1.317     1    60     0     0     0
[...]
   15 144    68    67     1     0    20  1.308     1    60     0     0     0
   15 145    69    68     1     0    20  1.308     1    60     0     0     0
   15 146    70    69     1     0    20  1.308     1    60     0     0     0
   15 147    71    70     1     0    20  1.308     1    60     0     0     0
   15 148    72    71     1     0    20  1.308     1    60     0     0     0
   15 149    73    72     1     0    20  1.308     1    60     0     0     0
   15 150    74    73     1     0    20  1.308     1    60     0     0     0
   15 151    75    74     1     0    20  1.308     1    60     0     0     0
   15 152    76    75     1     0    20  1.308     2   140     0     0     0
   15 153    77    76     1     0    20  1.308     2   140     0     0     0
   15 154    78    77     1     0    20  1.308     2   140     0     0     0
   15 155    79    78     1     0    20  1.308     2   140     0     0     0
   15 156    80    79     1     0    20  1.308     2   140     0     0     0
   15 157    81    80     1     0    20  1.308     2   140     0     0     0
   15 158    82    81     1     0    20  1.308     2   140     0     0     0
   15 159    83    82     1     0    20  1.308     2   140     0     0     0
   15 160    84    83     1     0    20  1.308     2   140     0     0     0
   15 161    85    84     1     0    20  1.308     2   140     0     0     0
   15 162    86    85     1     0    20  1.308     2   140     0     0     0
   15 163    87    86     1     0    20  1.308     2   140     0     0     0
   15 164    88    87     1     0    20  1.308     2   140     0     0     0
   15 165    89    88     1     0    20  1.308     2   140     0     0     0
   15 166    90    89     1     0    20  1.308     2   140     0     0     0
   15 167    91    90     1     0    20  1.308     2   140     0     0     0
   15 168    92    91     1     0    20  1.308     2   140     0     0     0
   15 169    93    92     1     0    20  1.308     2   140     0     0     0
   15 170    94    93     1     0    20  1.308     2   140     0     0     0
   15 171    95    94     1     0    20  1.308     2   140     0     0     0
   15 172    96    95     1     0    20  1.308     2   140     0     0     0
   15 173    97    96     1     0    20  1.308     2   140     0     0     0
   15 174    98    97     1     0    20  1.308     2   140     0     0     0
   15 175    99    98     1     0    20  1.308     2   140     0     0     0
   15 176   100    99     1     0    20  1.308     2   140     0     0     0
   15 177   101   100     1     0    20  1.308     2   140     0     0     0
   15 178   102   101     1     0    20  1.308     2   140     0     0     0
   15 179   103   102     1     0    20  1.308     2   140     0     0     0
   15 180   104   103     1     0    20  1.308     2   140     0     0     0
   15 181   105   104     1     0    20  1.308     2   140     0     0     0
   15 182   106   105     1     0    20  1.308     2   140     0     0     0
   15 183   107   106     1     0    20  1.308     3   180     0     0     0
   15 184   108   107     1     0    20  1.308     3   180     0     0     0
   15 185   109   108     1     0    20  1.308     3   180     0     0     0
   15 186   110   109     1     0    20  1.308     3   180     0     0     0
   15 187   111   110     1     0    20  1.308     3   180     0     0     0
   15 188   112   111     1     0    20  1.308     3   180     0     0     0
   15 189   113   112     1     0    20  1.308     3   180     0     0     0
   15 190   114   113     1     0    20  1.308     3   180     0     0     0
   15 191   115   114     1     0    20  1.308     3   180     0     0     0
   15 192   116   115     1     0    20  1.308     3   180     0     0     0
   15 193   117   116     1     0    20  1.308     3   180     0     0     0
   15 194   118   117     1     0    20  1.308     3   180     0     0     0
   15 195   119   118     1     0    20  1.308     3   180     0     0     0
   15 196   120   119     1     0    20  1.308     3   180     0     0     0
   15 197   121   120     1     0    20  1.308     3   180     0     0     0
   15 198   122   121     1     0    20  1.308     3   180     0     0     0
   15 199   123   122     1     0    20  1.308     3   180     0     0     0
   15 200   124   123     1     0    20  1.308     3   180     0     0     0
   15 201   125   124     1     0    20  1.308     3   180     0     0     0
   15 202   126   125     1     0    20  1.308     3   180     0     0     0
   15 203   127   126     1     0    20  1.308     3   180     0     0     0
   15 204   128   127     1     0    20  1.308     3   180     0     0     0
   15 205   129   128     1     0    20  1.308     3   180     0     0     0
   15 206   130   129     1     0    20  1.308     3   180     0     0     0
   15 207   131   130     1     0    20  1.308     3   180     0     0     0
   15 208   132   131     1     0    20  1.308     3   180     0     0     0
   15 209   133   132     1     0    20  1.308     3   180     0     0     0
   15 210   134   133     1     0    20  1.308     3   180     0     0     0
   15 211   135   134     1     0    20  1.308     3   180     0     0     0
   15 212   136   135     1     0    20  1.308     3   180     0     0     0
   15 213   137   136     1     0    20  1.308     3   180     0     0     0
   15 214   138   137     1     0    20  1.308     3   180     0     0     0
   15 215   139   138     1     0    20  1.308     3   180     0     0     0
   15 216   140   139     1     0    20  1.308     3   180     0     0     0
   15 217   141   140     1     0    20  1.308     3   180     0     0     0
   15 218   142   141     1     0    20  1.308     3   180     0     0     0
   15 219   143   142     1     0    20  1.308     3   180     0     0     0
   15 220   144   143     1     0    20  1.308     3   180     0     0     0
   15 221   145   144     1     0    20  1.308     3   180     0     0     0
   15 222   146   145     1     0    20  1.308     3   180     0     0     0
   15 223   147   146     1     0    20  1.308     3   180     0     0     0
   15 224   148   147     1     0    20  1.308     3   180     0     0     0
   15 225   149   148     1     0    20  1.308     3   180     0     0     0
   15 226   150   149     1     0    20  1.308     3   180     0     0     0
   15 227   151   150     1     0    20  1.308     3   180     0     0     0
   15 228   152   151     1     0    20  1.308     3   180     0     0     0
   15 229   153   152     1     0    20  1.308     3   180     0     0     0
   15 230   154   153     1     0    20  1.308     3   180     0     0     0
   15 231   155   154     1     0    20  1.308     3   180     0     0     0
   15 232   156   155     1     0    20  1.308     3   180     0     0     0
   15 233   157   156     1     0    20  1.308     3   180     0     0     0
   15 234   158   157     1     0    20  1.308     3   180     0     0     0
   15 235   159   158     1     0    20  1.308     3   180     0     0     0
   15 236   160   159     1     0    20  1.308     3   180     0     0     0
   15 237   161   160     1     0    20  1.308     3   180     0     0     0

*DSSAT Cropping System Model Ver. 4.8.5.000 -release  FEB 02, 2026 11:46:57

*RUN  15        : 15                        WHAPS048 TUDU1501   15
 MODEL          : WHAPS048 - Wheat
 EXPERIMENT     : TUDU1501 WH
 DATA PATH      :
 TREATMENT 15   : 15                        WHAPS048
  

@YEAR DOY   DAS   DAP  TL#C  TLDD DLYR3   TLBD  NAPC  NICM  R#AC RESNC RESPC
   15 077     1     0     1     4    20  1.332     0     0     0     0     0
   15 078     2     1     1     0    20  1.332     0     0     0     0     0
   15 079     3     2     1     0    20  1.332     0     0     0     0     0
   15 080     4     3     1     0    20  1.331     0     0     0     0     0
   15 081     5     4     1     0    20  1.331     0     0     0     0     0
   15 082     6     5     1     0    20  1.331     0     0     0     0     0
   15 083     7     6     1     0    20  1.331     0     0     0     0     0
   15 084     8     7     1     0    20  1.331     0     0     0     0     0
   15 085     9     8     1     0    20  1.331     0     0     0     0     0
   15 086    10     9     1     0    20  1.330     0     0     0     0     0
   15 087    11    10     1     0    20  1.330     0     0     0     0     0
   15 088    12    11     1     0    20  1.330     0     0     0     0     0
   15 089    13    12     1     0    20  1.328     0     0     0     0     0
   15 090    14    13     1     0    20  1.326     0     0     0     0     0
   15 091    15    14     1     0    20  1.325     0     0     0     0     0
   15 092    16    15     1     0    20  1.324     0     0     0     0     0
   15 093    17    16     1     0    20  1.324     0     0     0     0     0
   15 094    18    17     1     0    20  1.323     0     0     0     0     0
   15 095    19    18     1     0    20  1.323     0     0     0     0     0
   15 096    20    19     1     0    20  1.323     0     0     0     0     0
   15 097    21    20     1     0    20  1.323     0     0     0     0     0
   15 098    22    21     1     0    20  1.323     0     0     0     0     0
   15 099    23    22     1     0    20  1.323     0     0     0     0     0
   15 100    24    23     1     0    20  1.323     0     0     0     0     0
   15 101    25    24     1     0    20  1.323     0     0     0     0     0
   15 102    26    25     1     0    20  1.323     0     0     0     0     0
   15 103    27    26     1     0    20  1.323     0     0     0     0     0
   15 104    28    27     1     0    20  1.323     0     0     0     0     0
   15 105    29    28     1     0    20  1.323     0     0     0     0     0
   15 106    30    29     1     0    20  1.323     0     0     0     0     0
   15 107    31    30     1     0    20  1.317     0     0     0     0     0
   15 108    32    31     1     0    20  1.317     0     0     0     0     0
   15 109    33    32     1     0    20  1.317     0     0     0     0     0
   15 110    34    33     1     0    20  1.317     0     0     0     0     0
   15 111    35    34     1     0    20  1.317     0     0     0     0     0
   15 112    36    35     1     0    20  1.317     0     0     0     0     0
   15 113    37    36     1     0    20  1.317     0     0     0     0     0
   15 114    38    37     1     0    20  1.317     0     0     0     0     0
   15 115    39    38     1     0    20  1.317     0     0     0     0     0
   15 116    40    39     1     0    20  1.317     0     0     0     0     0
   15 117    41    40     1     0    20  1.316     0     0     0     0     0
   15 118    42    41     1     0    20  1.315     0     0     0     0     0
   15 119    43    42     1     0    20  1.315     0     0     0     0     0
   15 120    44    43     1     0    20  1.315     0     0     0     0     0
   15 121    45    44     1     0    20  1.312     0     0     0     0     0
   15 122    46    45     1     0    20  1.312     0     0     0     0     0
   15 123    47    46     1     0    20  1.311     0     0     0     0     0
   15 124    48    47     1     0    20  1.311     0     0     0     0     0
   15 125    49    48     1     0    20  1.311     0     0     0     0     0
   15 126    50    49     1     0    20  1.308     0     0     0     0     0
   15 127    51    50     1     0    20  1.308     0     0     0     0     0
   15 128    52    51     1     0    20  1.308     0     0     0     0     0
   15 129    53    52     1     0    20  1.308     0     0     0     0     0
   15 130    54    53     1     0    20  1.308     0     0     0     0     0
   15 131    55    54     1     0    20  1.308     0     0     0     0     0
   15 132    56    55     1     0    20  1.308     0     0     0     0     0
   15 133    57    56     1     0    20  1.308     0     0     0     0     0
   15 134    58    57     1     0    20  1.308     0     0     0     0     0
   15 135    59    58     1     0    20  1.308     0     0     0     0     0
   15 136    60    59     1     0    20  1.308     0     0     0     0     0
   15 137    61    60     1     0    20  1.308     0     0     0     0     0
   15 138    62    61     1     0    20  1.308     0     0     0     0     0
   15 139    63    62     1     0    20  1.308     0     0     0     0     0
   15 140    64    63     1     0    20  1.308     0     0     0     0     0
   15 141    65    64     1     0    20  1.308     0     0     0     0     0
   15 142    66    65     1     0    20  1.308     0     0     0     0     0
   15 143    67    66     1     0    20  1.308     0     0     0     0     0
   15 144    68    67     1     0    20  1.308     0     0     0     0     0
   15 145    69    68     1     0    20  1.308     0     0     0     0     0
   15 146    70    69     1     0    20  1.308     0     0     0     0     0
   15 147    71    70     1     0    20  1.308     0     0     0     0     0
   15 148    72    71     1     0    20  1.308     0     0     0     0     0
   15 149    73    72     1     0    20  1.308     0     0     0     0     0
   15 150    74    73     1     0    20  1.308     0     0     0     0     0
   15 151    75    74     1     0    20  1.308     0     0     0     0     0
   15 152    76    75     1     0    20  1.308     0     0     0     0     0
   15 153    77    76     1     0    20  1.308     0     0     0     0     0
   15 154    78    77     1     0    20  1.308     0     0     0     0     0
   15 155    79    78     1     0    20  1.308     0     0     0     0     0
   15 156    80    79     1     0    20  1.308     0     0     0     0     0
   15 157    81    80     1     0    20  1.308     0     0     0     0     0
   15 158    82    81     1     0    20  1.308     0     0     0     0     0
   15 159    83    82     1     0    20  1.308     0     0     0     0     0
   15 160    84    83     1     0    20  1.308     0     0     0     0     0
   15 161    85    84     1     0    20  1.308     0     0     0     0     0
   15 162    86    85     1     0    20  1.308     0     0     0     0     0
   15 163    87    86     1     0    20  1.308     0     0     0     0     0
   15 164    88    87     1     0    20  1.308     0     0     0     0     0
   15 165    89    88     1     0    20  1.308     0     0     0     0     0
   15 166    90    89     1     0    20  1.308     0     0     0     0     0
   15 167    91    90     1     0    20  1.308     0     0     0     0     0
   15 168    92    91     1     0    20  1.308     0     0     0     0     0
   15 169    93    92     1     0    20  1.308     0     0     0     0     0
   15 170    94    93     1     0    20  1.308     0     0     0     0     0
   15 171    95    94     1     0    20  1.308     0     0     0     0     0
   15 172    96    95     1     0    20  1.308     0     0     0     0     0
   15 173    97    96     1     0    20  1.308     0     0     0     0     0
   15 174    98    97     1     0    20  1.308     0     0     0     0     0
   15 175    99    98     1     0    20  1.308     0     0     0     0     0
   15 176   100    99     1     0    20  1.308     0     0     0     0     0
   15 177   101   100     1     0    20  1.308     0     0     0     0     0
   15 178   102   101     1     0    20  1.308     0     0     0     0     0
   15 179   103   102     1     0    20  1.308     0     0     0     0     0
   15 180   104   103     1     0    20  1.308     0     0     0     0     0
   15 181   105   104     1     0    20  1.308     0     0     0     0     0
   15 182   106   105     1     0    20  1.308     0     0     0     0     0
   15 183   107   106     1     0    20  1.308     0     0     0     0     0
   15 184   108   107     1     0    20  1.308     0     0     0     0     0
   15 185   109   108     1     0    20  1.308     0     0     0     0     0
   15 186   110   109     1     0    20  1.308     0     0     0     0     0
   15 187   111   110     1     0    20  1.308     0     0     0     0     0
   15 188   112   111     1     0    20  1.308     0     0     0     0     0
   15 189   113   112     1     0    20  1.308     0     0     0     0     0
   15 190   114   113     1     0    20  1.308     0     0     0     0     0
   15 191   115   114     1     0    20  1.308     0     0     0     0     0
   15 192   116   115     1     0    20  1.308     0     0     0     0     0
   15 193   117   116     1     0    20  1.308     0     0     0     0     0
   15 194   118   117     1     0    20  1.308     0     0     0     0     0
   15 195   119   118     1     0    20  1.308     0     0     0     0     0
   15 196   120   119     1     0    20  1.308     0     0     0     0     0
   15 197   121   120     1     0    20  1.308     0     0     0     0     0
   15 198   122   121     1     0    20  1.308     0     0     0     0     0
   15 199   123   122     1     0    20  1.308     0     0     0     0     0
   15 200   124   123     1     0    20  1.308     0     0     0     0     0
   15 201   125   124     1     0    20  1.308     0     0     0     0     0
   15 202   126   125     1     0    20  1.308     0     0     0     0     0
   15 203   127   126     1     0    20  1.308     0     0     0     0     0
   15 204   128   127     1     0    20  1.308     0     0     0     0     0
   15 205   129   128     1     0    20  1.308     0     0     0     0     0
   15 206   130   129     1     0    20  1.308     0     0     0     0     0
   15 207   131   130     1     0    20  1.308     0     0     0     0     0
   15 208   132   131     1     0    20  1.308     0     0     0     0     0
   15 209   133   132     1     0    20  1.308     0     0     0     0     0
   15 210   134   133     1     0    20  1.308     0     0     0     0     0
   15 211   135   134     1     0    20  1.308     0     0     0     0     0
   15 212   136   135     1     0    20  1.308     0     0     0     0     0
   15 213   137   136     1     0    20  1.308     0     0     0     0     0
   15 214   138   137     1     0    20  1.308     0     0     0     0     0
   15 215   139   138     1     0    20  1.308     0     0     0     0     0
   15 216   140   139     1     0    20  1.308     0     0     0     0     0
   15 217   141   140     1     0    20  1.308     0     0     0     0     0
   15 218   142   141     1     0    20  1.308     0     0     0     0     0
   15 219   143   142     1     0    20  1.308     0     0     0     0     0
   15 220   144   143     1     0    20  1.308     0     0     0     0     0
   15 221   145   144     1     0    20  1.308     0     0     0     0     0
   15 222   146   145     1     0    20  1.308     0     0     0     0     0
   15 223   147   146     1     0    20  1.308     0     0     0     0     0
   15 224   148   147     1     0    20  1.308     0     0     0     0     0
   15 225   149   148     1     0    20  1.308     0     0     0     0     0
   15 226   150   149     1     0    20  1.308     0     0     0     0     0
   15 227   151   150     1     0    20  1.308     0     0     0     0     0
   15 228   152   151     1     0    20  1.308     0     0     0     0     0
   15 229   153   152     1     0    20  1.308     0     0     0     0     0
   15 230   154   153     1     0    20  1.308     0     0     0     0     0
   15 231   155   154     1     0    20  1.308     0     0     0     0     0
   15 232   156   155     1     0    20  1.308     0     0     0     0     0
   15 233   157   156     1     0    20  1.308     0     0     0     0     0
   15 234   158   157     1     0    20  1.308     0     0     0     0     0
   15 235   159   158     1     0    20  1.308     0     0     0     0     0
   15 236   160   159     1     0    20  1.308     0     0     0     0     0
   15 237   161   160     1     0    20  1.308     0     0     0     0     0
