*N2O emissions output file

*DSSAT Cropping System Model Ver. 4.8.5.000 -release  FEB 02, 2026 11:46:55

*RUN   1        : 1                         WHAPS048 TUDU1501    1
 MODEL          : WHAPS048 - Wheat
 EXPERIMENT     : TUDU1501 WH
 DATA PATH      :
 TREATMENT  1   : 1                         WHAPS048
  
!              |------------------------------ Cumulative -----------------------------|------------------------------ Daily ----------------------------------|
!               N2Oemit  N2emit  NOemit   Denit  Nitrif   N2O-denit+nit      N2      NO N2Oemit  N2emit  NOemit   Denit  Nitrif   N2O-denit+nit      N2      NO   Denitrification (g[N]/ha) by soil depth (cm):                                   Nitrification (g[N]/ha) by soil depth (cm):                                     N2O flux (g[N]/ha) by soil depth (cm):                                          N2 flux (g[N]/ha) by soil depth (cm):                                           NO flux (g[N]/ha) by soil depth (cm):
!                 kg/ha   kg/ha   kg/ha   kg/ha   kg/ha   kg/ha   kg/ha   kg/ha   kg/ha    g/ha    g/ha    g/ha    g/ha    g/ha    g/ha    g/ha    g/ha    g/ha     0-5    5-15   15-20   20-30   30-40   40-50   50-60   60-70   70-90  90-210     0-5    5-15   15-20   20-30   30-40   40-50   50-60   60-70   70-90  90-210     0-5    5-15   15-20   20-30   30-40   40-50   50-60   60-70   70-90  90-210     0-5    5-15   15-20   20-30   30-40   40-50   50-60   60-70   70-90  90-210     0-5    5-15   15-20   20-30   30-40   40-50   50-60   60-70   70-90  90-210
@YEAR DOY   DAS   N2OEC    N2EC    NOEC    NDNC    NITC   N2ODC   N2ONC   N2FLC   NOFLC  N2OGED   N2GED   NOGED    NDND   NITRD   N2ODD   N2OND   N2FLD   NOFLD   NDN1D   NDN2D   NDN3D   NDN4D   NDN5D   NDN6D   NDN7D   NDN8D   NDN9D   NDN10   NIT1D   NIT2D   NIT3D   NIT4D   NIT5D   NIT6D   NIT7D   NIT8D   NIT9D   NIT10   N2O1D   N2O2D   N2O3D   N2O4D   N2O5D   N2O6D   N2O7D   N2O8D   N2O9D   N2O10   N2F1D   N2F2D   N2F3D   N2F4D   N2F5D   N2F6D   N2F7D   N2F8D   N2F9D   N2F10   NOF1D   NOF2D   NOF3D   NOF4D   NOF5D   NOF6D   NOF7D   NOF8D   NOF9D   NOF10
   15 077     1    0.00    0.00    0.00    0.00     1.1   0.000   0.001   0.000   0.001     0.0     0.0     0.0     0.0    1119    0.00    1.12    0.00    1.50     0.0     0.0     0.0     0.0     0.0     0.0     0.0     0.0     0.0     0.0     22.     45.     23.     47.     42.     49.     50.     51.    107.    110.     0.0     0.0     0.0     0.0     0.0     0.0     0.1     0.1     0.1     0.1     0.0     0.0     0.0     0.0     0.0     0.0     0.0     0.0     0.0     0.0     0.1     0.2     0.1     0.1     0.1     0.1     0.1     0.1     0.1     0.1
   15 078     2    0.00    0.00    0.00    0.00     2.1   0.000   0.002   0.000   0.003     0.0     0.0     0.0     0.0     943    0.00    0.94    0.00    1.22     0.0     0.0     0.0     0.0     0.0     0.0     0.0     0.0     0.0     0.0     16.     34.     19.     39.     36.     41.     42.     43.     90.     93.     0.0     0.0     0.0     0.0     0.0     0.0     0.0     0.0     0.1     0.1     0.0     0.0     0.0     0.0     0.0     0.0     0.0     0.0     0.0     0.0     0.0     0.1     0.1     0.1     0.1     0.1     0.1     0.1     0.1     0.1
   15 079     3    0.00    0.00    0.00    0.00     2.9   0.000   0.003   0.000   0.004     0.0     0.0     0.0     0.0     794    0.00    0.79    0.00    1.02     0.0     0.0     0.0     0.0     0.0     0.0     0.0     0.0     0.0     0.0     12.     26.     16.     33.     35.     34.     35.     36.     75.     78.     0.0     0.0     0.0     0.0     0.0     0.0     0.0     0.0     0.1     0.1     0.0     0.0     0.0     0.0     0.0     0.0     0.0     0.0     0.0     0.0     0.0     0.1     0.0     0.1     0.1     0.1     0.0     0.0     0.1     0.1
   15 080     4    0.00    0.00    0.00    0.00     3.5   0.000   0.004   0.000   0.007     0.0     0.0     0.1     0.0     666    0.00    0.67    0.00    3.18     0.0     0.0     0.0     0.0     0.0     0.0     0.0     0.0     0.0     0.0      9.     19.     13.     27.     29.     28.     29.     30.     63.     66.     0.0     0.0     0.0     0.0     0.0     0.0     0.0     0.0     0.1     0.1     0.0     0.0     0.0     0.0     0.0     0.0     0.0     0.0     0.0     0.0     0.1     0.2     0.1     0.2     0.2     0.2     0.2     0.1     0.3     0.3
   15 081     5    0.00    0.00    0.00    0.00     4.1   0.000   0.004   0.000   0.009     0.0     0.0     0.1     0.0     562    0.00    0.56    0.00    2.17     0.0     0.0     0.0     0.0     0.0     0.0     0.0     0.0     0.0     0.0      7.     15.     11.     22.     24.     24.     25.     25.     53.     55.     0.0     0.0     0.0     0.0     0.0     0.0     0.0     0.0     0.1     0.1     0.0     0.0     0.0     0.0     0.0     0.0     0.0     0.0     0.0     0.0     0.1     0.2     0.1     0.2     0.1     0.1     0.1     0.1     0.2     0.2
   15 082     6    0.00    0.00    0.00    0.00     4.6   0.000   0.005   0.000   0.011     0.0     0.0     0.1     0.0     468    0.00    0.47    0.00    1.46     0.0     0.0     0.0     0.0     0.0     0.0     0.0     0.0     0.0     0.0      6.     12.      9.     18.     20.     19.     20.     21.     44.     46.     0.0     0.0     0.0     0.0     0.0     0.0     0.0     0.0     0.0     0.0     0.0     0.0     0.0     0.0     0.0     0.0     0.0     0.0     0.0     0.0     0.0     0.1     0.1     0.1     0.1     0.1     0.1     0.1     0.1     0.1
   15 083     7    0.00    0.00    0.00    0.00     5.0   0.000   0.005   0.000   0.012     0.0     0.0     0.1     0.0     407    0.00    0.41    0.00    1.03     0.0     0.0     0.0     0.0     0.0     0.0     0.0     0.0     0.0     0.0      5.     10.      8.     16.     17.     17.     18.     18.     38.     40.     0.0     0.0     0.0     0.0     0.0     0.0     0.0     0.0     0.0     0.0     0.0     0.0     0.0     0.0     0.0     0.0     0.0     0.0     0.0     0.0     0.0     0.1     0.0     0.1     0.1     0.1     0.0     0.0     0.1     0.1
   15 084     8    0.00    0.00    0.00    0.00     5.3   0.000   0.005   0.000   0.012     0.0     0.0     0.1     0.0     373    0.00    0.37    0.00    0.77     0.0     0.0     0.0     0.0     0.0     0.0     0.0     0.0     0.0     0.0      5.     10.      7.     15.     16.     16.     16.     17.     35.     37.     0.0     0.0     0.0     0.0     0.0     0.0     0.0     0.0     0.0     0.0     0.0     0.0     0.0     0.0     0.0     0.0     0.0     0.0     0.0     0.0     0.0     0.1     0.0     0.1     0.0     0.0     0.0     0.0     0.1     0.1
   15 085     9    0.00    0.00    0.00    0.00     5.7   0.000   0.006   0.000   0.013     0.0     0.0     0.1     0.0     353    0.00    0.35    0.00    0.59     0.0     0.0     0.0     0.0     0.0     0.0     0.0     0.0     0.0     0.0      5.      9.      7.     14.     15.     15.     16.     16.     33.     35.     0.0     0.0     0.0     0.0     0.0     0.0     0.0     0.0     0.0     0.0     0.0     0.0     0.0     0.0     0.0     0.0     0.0     0.0     0.0     0.0     0.0     0.0     0.0     0.0     0.0     0.0     0.0     0.0     0.0     0.0
   15 086    10    0.00    0.00    0.00    0.00     6.0   0.000   0.006   0.000   0.013     0.0     0.0     0.1     0.0     323    0.00    0.32    0.00    0.44     0.0     0.0     0.0     0.0     0.0     0.0     0.0     0.0     0.0     0.0      4.      9.      6.     13.     14.     14.     14.     15.     30.     32.     0.0     0.0     0.0     0.0     0.0     0.0     0.0     0.0     0.0     0.0     0.0     0.0     0.0     0.0     0.0     0.0     0.0     0.0     0.0     0.0     0.0     0.0     0.0     0.0     0.0     0.0     0.0     0.0     0.0     0.0
   15 087    11    0.00    0.00    0.00    0.00     6.3   0.000   0.006   0.000   0.014     0.0     0.0     0.1     0.0     303    0.00    0.30    0.00    0.39     0.0     0.0     0.0     0.0     0.0     0.0     0.0     0.0     0.0     0.0      4.      8.      6.     13.     13.     13.     14.     14.     29.     30.     0.0     0.0     0.0     0.0     0.0     0.0     0.0     0.0     0.0     0.0     0.0     0.0     0.0     0.0     0.0     0.0     0.0     0.0     0.0     0.0     0.0     0.0     0.0     0.0     0.0     0.0     0.0     0.0     0.0     0.0
   15 088    12    0.00    0.00    0.00    0.00     6.6   0.000   0.007   0.000   0.014     0.0     0.0     0.2     0.0     285    0.00    0.29    0.00    0.37     0.0     0.0     0.0     0.0     0.0     0.0     0.0     0.0     0.0     0.0      4.      8.      6.     12.     13.     13.     13.     13.     27.     28.     0.0     0.0     0.0     0.0     0.0     0.0     0.0     0.0     0.0     0.0     0.0     0.0     0.0     0.0     0.0     0.0     0.0     0.0     0.0     0.0     0.0     0.0     0.0     0.0     0.0     0.0     0.0     0.0     0.0     0.0
   15 089    13    0.00    0.00    0.00    0.00     6.9   0.000   0.007   0.000   0.014     0.0     0.0     0.2     0.0     268    0.00    0.27    0.00    0.34     0.0     0.0     0.0     0.0     0.0     0.0     0.0     0.0     0.0     0.0      3.      7.      6.     12.     12.     12.     12.     13.     26.     26.     0.0     0.0     0.0     0.0     0.0     0.0     0.0     0.0     0.0     0.0     0.0     0.0     0.0     0.0     0.0     0.0     0.0     0.0     0.0     0.0     0.0     0.0     0.0     0.0     0.0     0.0     0.0     0.0     0.0     0.0
   15 090    14    0.00    0.00    0.00    0.00     7.1   0.000   0.007   0.000   0.015     0.0     0.0     0.1     0.0     237    0.00    0.24    0.00    0.30     0.0     0.0     0.0     0.0     0.0     0.0     0.0     0.0     0.0     0.0      3.      5.      5.     10.     11.     10.     11.     11.     23.     23.     0.0     0.0     0.0     0.0     0.0     0.0     0.0     0.0     0.0     0.0     0.0     0.0     0.0     0.0     0.0     0.0     0.0     0.0     0.0     0.0     0.0     0.0     0.0     0.0     0.0     0.0     0.0     0.0     0.0     0.0
   15 091    15    0.00    0.00    0.00    0.00     7.3   0.000   0.007   0.000   0.015     0.0     0.0     0.1     0.0     218    0.00    0.22    0.00    0.27     0.0     0.0     0.0     0.0     0.0     0.0     0.0     0.0     0.0     0.0      2.      5.      5.     10.     10.     10.     10.     10.     21.     22.     0.0     0.0     0.0     0.0     0.0     0.0     0.0     0.0     0.0     0.0     0.0     0.0     0.0     0.0     0.0     0.0     0.0     0.0     0.0     0.0     0.0     0.0     0.0     0.0     0.0     0.0     0.0     0.0     0.0     0.0
   15 092    16    0.00    0.00    0.00    0.00     7.5   0.000   0.008   0.000   0.015     0.0     0.0     0.1     0.0     192    0.00    0.19    0.00    0.24     0.0     0.0     0.0     0.0     0.0     0.0     0.0     0.0     0.0     0.0      1.      3.      4.      8.      9.      8.      9.      9.     18.     19.     0.0     0.0     0.0     0.0     0.0     0.0     0.0     0.0     0.0     0.0     0.0     0.0     0.0     0.0     0.0     0.0     0.0     0.0     0.0     0.0     0.0     0.0     0.0     0.0     0.0     0.0     0.0     0.0     0.0     0.0
   15 093    17    0.00    0.00    0.00    0.00     7.7   0.000   0.008   0.000   0.015     0.0     0.0     0.1     0.0     168    0.00    0.17    0.00    0.20     0.0     0.0     0.0     0.0     0.0     0.0     0.0     0.0     0.0     0.0      1.      2.      3.      7.      8.      7.      8.      8.     16.     17.     0.0     0.0     0.0     0.0     0.0     0.0     0.0     0.0     0.0     0.0     0.0     0.0     0.0     0.0     0.0     0.0     0.0     0.0     0.0     0.0     0.0     0.0     0.0     0.0     0.0     0.0     0.0     0.0     0.0     0.0
   15 094    18    0.00    0.00    0.00    0.00     7.8   0.000   0.008   0.000   0.016     0.0     0.0     0.2     0.0     145    0.00    0.15    0.00    0.18     0.0     0.0     0.0     0.0     0.0     0.0     0.0     0.0     0.0     0.0      1.      2.      3.      6.      7.      6.      7.      7.     14.     14.     0.0     0.0     0.0     0.0     0.0     0.0     0.0     0.0     0.0     0.0     0.0     0.0     0.0     0.0     0.0     0.0     0.0     0.0     0.0     0.0     0.0     0.0     0.0     0.0     0.0     0.0     0.0     0.0     0.0     0.0
   15 095    19    0.00    0.00    0.00    0.00     7.9   0.000   0.008   0.000   0.016     0.0     0.0     0.1     0.0     127    0.00    0.13    0.00    0.15     0.0     0.0     0.0     0.0     0.0     0.0     0.0     0.0     0.0     0.0      1.      2.      2.      5.      6.      6.      6.      6.     12.     13.     0.0     0.0     0.0     0.0     0.0     0.0     0.0     0.0     0.0     0.0     0.0     0.0     0.0     0.0     0.0     0.0     0.0     0.0     0.0     0.0     0.0     0.0     0.0     0.0     0.0     0.0     0.0     0.0     0.0     0.0
   15 096    20    0.00    0.00    0.00    0.00     8.1   0.000   0.008   0.000   0.016     0.0     0.0     0.2     0.0     111    0.00    0.11    0.00    0.13     0.0     0.0     0.0     0.0     0.0     0.0     0.0     0.0     0.0     0.0      1.      1.      2.      5.      5.      5.      5.      5.     10.     11.     0.0     0.0     0.0     0.0     0.0     0.0     0.0     0.0     0.0     0.0     0.0     0.0     0.0     0.0     0.0     0.0     0.0     0.0     0.0     0.0     0.0     0.0     0.0     0.0     0.0     0.0     0.0     0.0     0.0     0.0
   15 097    21    0.00    0.00    0.00    0.00     8.2   0.000   0.008   0.000   0.016     0.1     0.0     0.2     0.0     101    0.00    0.10    0.00    0.12     0.0     0.0     0.0     0.0     0.0     0.0     0.0     0.0     0.0     0.0      1.      1.      2.      4.      5.      4.      5.      5.     10.     10.     0.0     0.0     0.0     0.0     0.0     0.0     0.0     0.0     0.0     0.0     0.0     0.0     0.0     0.0     0.0     0.0     0.0     0.0     0.0     0.0     0.0     0.0     0.0     0.0     0.0     0.0     0.0     0.0     0.0     0.0
   15 098    22    0.00    0.00    0.00    0.00     8.3   0.000   0.008   0.000   0.016     0.1     0.0     0.2     0.0      93    0.00    0.09    0.00    0.12     0.0     0.0     0.0     0.0     0.0     0.0     0.0     0.0     0.0     0.0      1.      1.      2.      4.      4.      4.      4.      4.      9.      9.     0.0     0.0     0.0     0.0     0.0     0.0     0.0     0.0     0.0     0.0     0.0     0.0     0.0     0.0     0.0     0.0     0.0     0.0     0.0     0.0     0.0     0.0     0.0     0.0     0.0     0.0     0.0     0.0     0.0     0.0
   15 099    23    0.00    0.00    0.00    0.00     9.8   0.000   0.010   0.000   0.021     0.3     0.0     0.9     0.0    1512    0.00    1.51    0.00    4.44     0.0     0.0     0.0     0.0     0.0     0.0     0.0     0.0     0.0     0.0   1425.      1.      2.      4.      4.      4.      4.      4.      8.      9.     1.4     0.0     0.0     0.0     0.0     0.0     0.0     0.0     0.0     0.0     0.0     0.0     0.0     0.0     0.0     0.0     0.0     0.0     0.0     0.0     4.3     0.0     0.0     0.0     0.0     0.0     0.0     0.0     0.0     0.0
   15 100    24    0.00    0.00    0.01    0.00    11.8   0.000   0.012   0.000   0.027     0.6     0.0     1.8     0.0    2036    0.00    2.04    0.00    6.15     0.0     0.0     0.0     0.0     0.0     0.0     0.0     0.0     0.0     0.0   1949.      1.      2.      4.      4.      4.      4.      4.      9.      9.     1.9     0.0     0.0     0.0     0.0     0.0     0.0     0.0     0.0     0.0     0.0     0.0     0.0     0.0     0.0     0.0     0.0     0.0     0.0     0.0     6.0     0.0     0.0     0.0     0.0     0.0     0.0     0.0     0.0     0.0
   15 101    25    0.00    0.00    0.01    0.00    14.3   0.000   0.014   0.000   0.035     0.9     0.0     2.9     0.0    2476    0.00    2.48    0.00    7.79     0.0     0.0     0.0     0.0     0.0     0.0     0.0     0.0     0.0     0.0   2387.      1.      2.      4.      4.      4.      4.      4.      9.      9.     2.4     0.0     0.0     0.0     0.0     0.0     0.0     0.0     0.0     0.0     0.0     0.0     0.0     0.0     0.0     0.0     0.0     0.0     0.0     0.0     7.7     0.0     0.0     0.0     0.0     0.0     0.0     0.0     0.0     0.0
   15 102    26    0.00    0.00    0.01    0.00    17.1   0.000   0.017   0.000   0.044     1.3     0.0     4.1     0.0    2861    0.00    2.86    0.00    9.50     0.0     0.0     0.0     0.0     0.0     0.0     0.0     0.0     0.0     0.0   2770.      0.      2.      5.      5.      4.      5.      5.      9.      9.     2.8     0.0     0.0     0.0     0.0     0.0     0.0     0.0     0.0     0.0     0.0     0.0     0.0     0.0     0.0     0.0     0.0     0.0     0.0     0.0     9.4     0.0     0.0     0.0     0.0     0.0     0.0     0.0     0.0     0.0
   15 103    27    0.01    0.00    0.02    0.00    20.2   0.000   0.020   0.000   0.055     1.6     0.0     5.4     0.0    3081    0.00    3.08    0.00   10.85     0.0     0.0     0.0     0.0     0.0     0.0     0.0     0.0     0.0     0.0   2985.      0.      2.      5.      5.      5.      5.      5.     10.     10.     3.0     0.0     0.0     0.0     0.0     0.0     0.0     0.0     0.0     0.0     0.0     0.0     0.0     0.0     0.0     0.0     0.0     0.0     0.0     0.0    10.7     0.0     0.0     0.0     0.0     0.0     0.0     0.0     0.0     0.0
   15 104    28    0.01    0.00    0.02    0.00    23.1   0.000   0.023   0.000   0.066     1.9     0.0     6.5     0.0    2882    0.00    2.88    0.00   10.77     0.0     0.0     0.0     0.0     0.0     0.0     0.0     0.0     0.0     0.0   2782.      0.      2.      5.      5.      5.      5.      5.     10.     10.     2.8     0.0     0.0     0.0     0.0     0.0     0.0     0.0     0.0     0.0     0.0     0.0     0.0     0.0     0.0     0.0     0.0     0.0     0.0     0.0    10.7     0.0     0.0     0.0     0.0     0.0     0.0     0.0     0.0     0.0
   15 105    29    0.01    0.00    0.03    0.00    25.5   0.000   0.026   0.000   0.075     2.0     0.0     7.2     0.0    2407    0.00    2.41    0.00    9.50     0.0     0.0     0.0     0.0     0.0     0.0     0.0     0.0     0.0     0.0   2305.      0.      2.      4.      5.      4.      5.      5.     10.     11.     2.3     0.0     0.0     0.0     0.0     0.0     0.0     0.0     0.0     0.0     0.0     0.0     0.0     0.0     0.0     0.0     0.0     0.0     0.0     0.0     9.4     0.0     0.0     0.0     0.0     0.0     0.0     0.0     0.0     0.0
   15 106    30    0.01    0.00    0.04    0.00    27.6   0.000   0.028   0.000   0.084     2.0     0.0     7.6     0.0    2073    0.00    2.07    0.00    8.58     0.0     0.0     0.0     0.0     0.0     0.0     0.0     0.0     0.0     0.0   1967.      0.      2.      4.      5.      4.      5.      6.     10.     11.     2.0     0.0     0.0     0.0     0.0     0.0     0.0     0.0     0.0     0.0     0.0     0.0     0.0     0.0     0.0     0.0     0.0     0.0     0.0     0.0     8.4     0.0     0.0     0.0     0.0     0.0     0.0     0.0     0.0     0.0
   15 107    31    0.01    0.00    0.05    0.00    29.4   0.000   0.029   0.000   0.092     2.0     0.0     7.8     0.0    1818    0.00    1.82    0.00    7.80     0.0     0.0     0.0     0.0     0.0     0.0     0.0     0.0     0.0     0.0   1705.      0.      2.      4.      5.      5.      5.      6.     11.     12.     1.7     0.0     0.0     0.0     0.0     0.0     0.0     0.0     0.0     0.0     0.0     0.0     0.0     0.0     0.0     0.0     0.0     0.0     0.0     0.0     7.7     0.0     0.0     0.0     0.0     0.0     0.0     0.0     0.0     0.0
   15 108    32    0.01    0.00    0.05    0.00    30.5   0.000   0.031   0.000   0.092     0.6     0.0     2.1     0.0    1143    0.00    1.14    0.00    0.59     0.0     0.0     0.0     0.0     0.0     0.0     0.0     0.0     0.0     0.0   1029.      0.      2.      3.      5.      5.      5.      6.     11.     12.     1.0     0.0     0.0     0.0     0.0     0.0     0.0     0.0     0.0     0.0     0.0     0.0     0.0     0.0     0.0     0.0     0.0     0.0     0.0     0.0     0.5     0.0     0.0     0.0     0.0     0.0     0.0     0.0     0.0     0.0
   15 109    33    0.02    0.00    0.05    0.00    32.0   0.000   0.032   0.000   0.094     1.3     0.0     4.3     0.0    1415    0.00    1.41    0.00    1.93     0.0     0.0     0.0     0.0     0.0     0.0     0.0     0.0     0.0     0.0   1304.      0.      2.      3.      5.      4.      5.      6.     10.     11.     1.3     0.0     0.0     0.0     0.0     0.0     0.0     0.0     0.0     0.0     0.0     0.0     0.0     0.0     0.0     0.0     0.0     0.0     0.0     0.0     1.8     0.0     0.0     0.0     0.0     0.0     0.0     0.0     0.0     0.0
   15 110    34    0.02    0.00    0.06    0.00    33.2   0.000   0.033   0.000   0.098     1.8     0.0     5.8     0.0    1262    0.00    1.26    0.00    4.11     0.0     0.0     0.0     0.0     0.0     0.0     0.0     0.0     0.0     0.0   1157.      0.      2.      4.      5.      4.      5.      5.     10.     11.     1.2     0.0     0.0     0.0     0.0     0.0     0.0     0.0     0.0     0.0     0.0     0.0     0.0     0.0     0.0     0.0     0.0     0.0     0.0     0.0     4.0     0.0     0.0     0.0     0.0     0.0     0.0     0.0     0.0     0.0
   15 111    35    0.02    0.00    0.06    0.00    34.2   0.000   0.034   0.000   0.101     1.7     0.0     5.3     0.0     970    0.00    0.97    0.00    3.12     0.0     0.0     0.0     0.0     0.0     0.0     0.0     0.0     0.0     0.0    872.      0.      2.      3.      4.      4.      4.      5.      9.     10.     0.9     0.0     0.0     0.0     0.0     0.0     0.0     0.0     0.0     0.0     0.0     0.0     0.0     0.0     0.0     0.0     0.0     0.0     0.0     0.0     3.0     0.0     0.0     0.0     0.0     0.0     0.0     0.0     0.0     0.0
   15 112    36    0.02    0.00    0.07    0.00    34.9   0.000   0.035   0.000   0.104     1.5     0.0     4.9     0.0     745    0.00    0.74    0.00    2.41     0.0     0.0     0.0     0.0     0.0     0.0     0.0     0.0     0.0     0.0    654.      0.      2.      3.      4.      3.      4.      5.      8.      9.     0.7     0.0     0.0     0.0     0.0     0.0     0.0     0.0     0.0     0.0     0.0     0.0     0.0     0.0     0.0     0.0     0.0     0.0     0.0     0.0     2.3     0.0     0.0     0.0     0.0     0.0     0.0     0.0     0.0     0.0
   15 113    37    0.02    0.00    0.07    0.00    35.6   0.000   0.036   0.000   0.106     1.4     0.0     4.4     0.0     627    0.00    0.63    0.00    2.09     0.0     0.0     0.0     0.0     0.0     0.0     0.0     0.0     0.0     0.0    539.      0.      2.      3.      4.      3.      4.      4.      8.      9.     0.5     0.0     0.0     0.0     0.0     0.0     0.0     0.0     0.0     0.0     0.0     0.0     0.0     0.0     0.0     0.0     0.0     0.0     0.0     0.0     2.0     0.0     0.0     0.0     0.0     0.0     0.0     0.0     0.0     0.0
   15 114    38    0.02    0.00    0.08    0.00    36.1   0.000   0.036   0.000   0.108     1.2     0.0     4.1     0.0     568    0.00    0.57    0.00    2.01     0.0     0.0     0.0     0.0     0.0     0.0     0.0     0.0     0.0     0.0    481.      0.      2.      3.      4.      3.      4.      4.      8.      9.     0.5     0.0     0.0     0.0     0.0     0.0     0.0     0.0     0.0     0.0     0.0     0.0     0.0     0.0     0.0     0.0     0.0     0.0     0.0     0.0     1.9     0.0     0.0     0.0     0.0     0.0     0.0     0.0     0.0     0.0
   15 115    39    0.02    0.00    0.08    0.00    36.7   0.000   0.037   0.000   0.110     1.1     0.0     3.8     0.0     526    0.00    0.53    0.00    1.94     0.0     0.0     0.0     0.0     0.0     0.0     0.0     0.0     0.0     0.0    438.      0.      2.      3.      4.      4.      4.      4.      8.      9.     0.4     0.0     0.0     0.0     0.0     0.0     0.0     0.0     0.0     0.0     0.0     0.0     0.0     0.0     0.0     0.0     0.0     0.0     0.0     0.0     1.8     0.0     0.0     0.0     0.0     0.0     0.0     0.0     0.0     0.0
   15 116    40    0.02    0.00    0.08    0.00    37.1   0.000   0.037   0.000   0.111     1.0     0.0     3.4     0.0     487    0.00    0.49    0.00    1.73     0.0     0.0     0.0     0.0     0.0     0.0     0.0     0.0     0.0     0.0    396.      0.      2.      3.      4.      4.      4.      5.      8.      9.     0.4     0.0     0.0     0.0     0.0     0.0     0.0     0.0     0.0     0.0     0.0     0.0     0.0     0.0     0.0     0.0     0.0     0.0     0.0     0.0     1.6     0.0     0.0     0.0     0.0     0.0     0.0     0.0     0.0     0.0
   15 117    41    0.03    0.00    0.09    0.00    37.6   0.000   0.038   0.000   0.113     0.9     0.0     3.0     0.0     449    0.00    0.45    0.00    1.53     0.0     0.0     0.0     0.0     0.0     0.0     0.0     0.0     0.0     0.0    353.      1.      2.      3.      5.      4.      5.      5.      9.     10.     0.4     0.0     0.0     0.0     0.0     0.0     0.0     0.0     0.0     0.0     0.0     0.0     0.0     0.0     0.0     0.0     0.0     0.0     0.0     0.0     1.4     0.0     0.0     0.0     0.0     0.0     0.0     0.0     0.0     0.0
   15 118    42    0.03    0.00    0.09    0.00    37.9   0.000   0.038   0.000   0.114     0.8     0.0     2.5     0.0     311    0.00    0.31    0.00    0.86     0.0     0.0     0.0     0.0     0.0     0.0     0.0     0.0     0.0     0.0    207.      1.      2.      4.      5.      5.      5.      5.      9.     10.     0.2     0.0     0.0     0.0     0.0     0.0     0.0     0.0     0.0     0.0     0.0     0.0     0.0     0.0     0.0     0.0     0.0     0.0     0.0     0.0     0.7     0.0     0.0     0.0     0.0     0.0     0.0     0.0     0.0     0.0
   15 119    43    0.03    0.00    0.09    0.00    38.1   0.000   0.038   0.000   0.114     0.4     0.0     1.3     0.0     227    0.00    0.23    0.00    0.25     0.0     0.0     0.0     0.0     0.0     0.0     0.0     0.0     0.0     0.0    116.      2.      3.      5.      6.      5.      6.      6.     10.     11.     0.1     0.0     0.0     0.0     0.0     0.0     0.0     0.0     0.0     0.0     0.0     0.0     0.0     0.0     0.0     0.0     0.0     0.0     0.0     0.0     0.1     0.0     0.0     0.0     0.0     0.0     0.0     0.0     0.0     0.0
   15 120    44    0.03    0.00    0.09    0.00    38.4   0.000   0.038   0.000   0.115     0.6     0.0     1.8     0.0     223    0.00    0.22    0.00    0.43     0.0     0.0     0.0     0.0     0.0     0.0     0.0     0.0     0.0     0.0    109.      3.      3.      5.      6.      5.      6.      6.     10.     11.     0.1     0.0     0.0     0.0     0.0     0.0     0.0     0.0     0.0     0.0     0.0     0.0     0.0     0.0     0.0     0.0     0.0     0.0     0.0     0.0     0.3     0.0     0.0     0.0     0.0     0.0     0.0     0.0     0.0     0.0
   15 121    45    0.03    0.00    0.10    0.00    38.5   0.000   0.039   0.000   0.115     0.6     0.0     1.7     0.0     181    0.00    0.18    0.00    0.38     0.0     0.0     0.0     0.0     0.0     0.0     0.0     0.0     0.0     0.0     64.      4.      3.      5.      6.      5.      6.      6.     10.     11.     0.1     0.0     0.0     0.0     0.0     0.0     0.0     0.0     0.0     0.0     0.0     0.0     0.0     0.0     0.0     0.0     0.0     0.0     0.0     0.0     0.2     0.0     0.0     0.0     0.0     0.0     0.0     0.0     0.0     0.0
   15 122    46    0.03    0.00    0.10    0.00    38.7   0.000   0.039   0.000   0.115     0.2     0.0     0.6     0.0     123    0.00    0.12    0.00    0.12     0.0     0.0     0.0     0.0     0.0     0.0     0.0     0.0     0.0     0.0     19.      2.      1.      3.      4.      4.      6.      6.     10.     11.     0.0     0.0     0.0     0.0     0.0     0.0     0.0     0.0     0.0     0.0     0.0     0.0     0.0     0.0     0.0     0.0     0.0     0.0     0.0     0.0     0.0     0.0     0.0     0.0     0.0     0.0     0.0     0.0     0.0     0.0
   15 123    47    0.03    0.00    0.10    0.00    38.8   0.000   0.039   0.001   0.115     0.3     0.1     0.8     1.5     107    0.03    0.11    1.42    0.14     1.5     0.0     0.0     0.0     0.0     0.0     0.0     0.0     0.0     0.0      9.      3.      1.      3.      4.      4.      4.      6.      9.     10.     0.0     0.0     0.0     0.0     0.0     0.0     0.0     0.0     0.0     0.0     1.4     0.0     0.0     0.0     0.0     0.0     0.0     0.0     0.0     0.0     0.0     0.0     0.0     0.0     0.0     0.0     0.0     0.0     0.0     0.0
   15 124    48    0.03    0.00    0.10    0.00    38.9   0.000   0.039   0.003   0.115     0.1     0.2     0.5     1.6     103    0.02    0.10    1.56    0.11     1.6     0.0     0.0     0.0     0.0     0.0     0.0     0.0     0.0     0.0      4.      3.      2.      3.      4.      4.      4.      5.     10.     11.     0.0     0.0     0.0     0.0     0.0     0.0     0.0     0.0     0.0     0.0     1.6     0.0     0.0     0.0     0.0     0.0     0.0     0.0     0.0     0.0     0.0     0.0     0.0     0.0     0.0     0.0     0.0     0.0     0.0     0.0
   15 125    49    0.03    0.00    0.10    0.00    39.0   0.000   0.039   0.003   0.115     0.3     0.4     0.9     0.1     118    0.00    0.12    0.12    0.12     0.1     0.0     0.0     0.0     0.0     0.0     0.0     0.0     0.0     0.0      1.      4.      3.      4.      5.      5.      5.      6.     11.     12.     0.0     0.0     0.0     0.0     0.0     0.0     0.0     0.0     0.0     0.0     0.1     0.0     0.0     0.0     0.0     0.0     0.0     0.0     0.0     0.0     0.0     0.0     0.0     0.0     0.0     0.0     0.0     0.0     0.0     0.0
   15 126    50    0.03    0.00    0.10    0.02    39.1   0.001   0.039   0.019   0.117     0.2     0.3     0.7    16.6     131    1.11    0.13   15.54    1.27     0.1     1.9     3.7     4.0     3.7     3.2     0.0     0.0     0.0     0.0      1.      5.      3.      5.      6.      5.      6.      7.     11.     14.     0.0     0.1     0.2     0.3     0.3     0.3     0.0     0.0     0.0     0.0     0.1     1.8     3.5     3.7     3.5     3.0     0.0     0.0     0.0     0.0     0.0     0.1     0.2     0.3     0.3     0.3     0.0     0.0     0.0     0.0
   15 127    51    0.03    0.00    0.10    0.06    39.2   0.004   0.039   0.059   0.118     0.2     0.3     0.4    43.1     134    2.89    0.13   40.26    1.71     0.2     3.9     4.4    12.8     9.8     6.6     5.3     0.0     0.0     0.0      1.      5.      2.      4.      5.      5.      7.      7.     12.     13.     0.0     0.1     0.2     0.8     0.7     0.6     0.6     0.0     0.0     0.0     0.2     3.9     4.3    12.0     9.1     6.1     4.8     0.0     0.0     0.0     0.0     0.0     0.1     0.3     0.4     0.4     0.4     0.0     0.0     0.0
   15 128    52    0.03    0.00    0.10    0.08    39.4   0.005   0.039   0.074   0.119     0.3     0.6     0.7    16.5     157    0.96    0.16   15.53    1.08     0.0     1.1     1.3     4.4     3.5     2.5     2.1     1.5     0.0     0.0      0.      8.      4.      6.      7.      6.      8.      9.     14.     15.     0.0     0.0     0.0     0.2     0.2     0.2     0.2     0.2     0.0     0.0     0.0     1.1     1.3     4.2     3.3     2.3     1.9     1.3     0.0     0.0     0.0     0.0     0.0     0.2     0.2     0.2     0.2     0.2     0.0     0.0
   15 129    53    0.03    0.00    0.10    0.08    39.6   0.005   0.040   0.079   0.120     0.3     0.9     0.8     4.6     172    0.24    0.17    4.32    0.52     0.0     0.2     0.3     1.2     1.0     0.7     0.7     0.5     0.0     0.0      0.      8.      4.      7.      8.      7.      9.     10.     16.     16.     0.0     0.0     0.0     0.0     0.1     0.0     0.1     0.1     0.0     0.0     0.0     0.2     0.3     1.2     0.9     0.6     0.6     0.5     0.0     0.0     0.0     0.0     0.0     0.1     0.1     0.1     0.1     0.1     0.0     0.0
   15 130    54    0.03    0.00    0.10    0.09    39.8   0.006   0.040   0.082   0.121     0.2     0.9     0.6     4.0     174    0.28    0.17    3.69    0.54     0.0     0.0     0.2     0.4     0.5     0.4     0.6     0.8     1.1     0.0      0.      7.      3.      7.      7.      7.      9.     10.     17.     17.     0.0     0.0     0.0     0.0     0.0     0.0     0.1     0.1     0.1     0.0     0.0     0.0     0.2     0.4     0.4     0.4     0.6     0.7     1.0     0.0     0.0     0.0     0.0     0.0     0.0     0.0     0.1     0.1     0.1     0.0
   15 131    55    0.03    0.00    0.10    0.09    39.9   0.006   0.040   0.084   0.121     0.3     1.3     0.7     1.2     168    0.12    0.17    1.10    0.34     0.0     0.0     0.0     0.0     0.0     0.0     0.1     0.2     0.8     0.0      0.      6.      3.      6.      6.      6.      8.     10.     16.     17.     0.0     0.0     0.0     0.0     0.0     0.0     0.0     0.0     0.1     0.0     0.0     0.0     0.0     0.0     0.0     0.0     0.1     0.2     0.8     0.0     0.0     0.0     0.0     0.0     0.0     0.0     0.0     0.0     0.1     0.0
   15 132    56    0.03    0.01    0.10    0.09    40.1   0.006   0.040   0.084   0.121     0.3     1.4     0.6     0.8     179    0.08    0.18    0.67    0.31     0.0     0.0     0.0     0.0     0.0     0.0     0.0     0.1     0.7     0.0      0.      7.      2.      6.      7.      7.      9.     11.     18.     21.     0.0     0.0     0.0     0.0     0.0     0.0     0.0     0.0     0.1     0.0     0.0     0.0     0.0     0.0     0.0     0.0     0.0     0.1     0.6     0.0     0.0     0.0     0.0     0.0     0.0     0.0     0.0     0.0     0.1     0.0
   15 133    57    0.03    0.01    0.10    0.09    40.3   0.006   0.040   0.085   0.121     0.3     1.6     0.5     0.4     196    0.05    0.20    0.40    0.30     0.0     0.0     0.0     0.0     0.0     0.0     0.0     0.0     0.4     0.0      1.      8.      3.      6.      7.      7.      9.     14.     20.     23.     0.0     0.0     0.0     0.0     0.0     0.0     0.0     0.0     0.1     0.0     0.0     0.0     0.0     0.0     0.0     0.0     0.0     0.0     0.4     0.0     0.0     0.0     0.0     0.0     0.0     0.0     0.0     0.0     0.1     0.0
   15 134    58    0.03    0.01    0.10    0.09    40.5   0.006   0.040   0.085   0.122     0.2     1.4     0.4     0.3     205    0.03    0.20    0.24    0.29     0.0     0.0     0.0     0.0     0.0     0.0     0.0     0.0     0.3     0.0      0.      9.      3.      7.      8.      7.      9.     14.     21.     24.     0.0     0.0     0.0     0.0     0.0     0.0     0.0     0.0     0.0     0.0     0.0     0.0     0.0     0.0     0.0     0.0     0.0     0.0     0.2     0.0     0.0     0.0     0.0     0.0     0.0     0.0     0.0     0.0     0.1     0.0
   15 135    59    0.03    0.01    0.10    0.09    40.7   0.006   0.041   0.085   0.122     0.3     1.9     0.5     0.1     213    0.01    0.21    0.11    0.29     0.0     0.0     0.0     0.0     0.0     0.0     0.0     0.0     0.1     0.0      0.     10.      4.      7.      8.      7.      9.     14.     23.     25.     0.0     0.0     0.0     0.0     0.0     0.0     0.0     0.0     0.0     0.0     0.0     0.0     0.0     0.0     0.0     0.0     0.0     0.0     0.1     0.0     0.0     0.0     0.0     0.0     0.0     0.0     0.0     0.0     0.0     0.0
   15 136    60    0.03    0.01    0.10    0.09    40.9   0.006   0.041   0.085   0.122     0.3     2.0     0.5     0.1     213    0.01    0.21    0.06    0.28     0.0     0.0     0.0     0.0     0.0     0.0     0.0     0.0     0.1     0.0      0.     10.      4.      7.      8.      7.      9.     12.     23.     25.     0.0     0.0     0.0     0.0     0.0     0.0     0.0     0.0     0.0     0.0     0.0     0.0     0.0     0.0     0.0     0.0     0.0     0.0     0.1     0.0     0.0     0.0     0.0     0.0     0.0     0.0     0.0     0.0     0.0     0.0
   15 137    61    0.03    0.02    0.10    0.09    41.1   0.006   0.041   0.085   0.123     0.3     2.1     0.4     0.0     219    0.00    0.22    0.00    0.28     0.0     0.0     0.0     0.0     0.0     0.0     0.0     0.0     0.0     0.0      0.     10.      4.      7.      8.      7.      9.     12.     28.     25.     0.0     0.0     0.0     0.0     0.0     0.0     0.0     0.0     0.0     0.0     0.0     0.0     0.0     0.0     0.0     0.0     0.0     0.0     0.0     0.0     0.0     0.0     0.0     0.0     0.0     0.0     0.0     0.0     0.0     0.0
   15 138    62    0.03    0.02    0.11    0.09    41.4   0.006   0.041   0.085   0.123     0.3     2.2     0.4     0.0     211    0.00    0.21    0.00    0.27     0.0     0.0     0.0     0.0     0.0     0.0     0.0     0.0     0.0     0.0      0.     11.      4.      7.      8.      7.      8.     10.     27.     24.     0.0     0.0     0.0     0.0     0.0     0.0     0.0     0.0     0.0     0.0     0.0     0.0     0.0     0.0     0.0     0.0     0.0     0.0     0.0     0.0     0.0     0.0     0.0     0.0     0.0     0.0     0.0     0.0     0.0     0.0
   15 139    63    0.03    0.02    0.11    0.09    41.6   0.006   0.042   0.085   0.123     0.3     2.3     0.4     0.0     207    0.00    0.21    0.00    0.27     0.0     0.0     0.0     0.0     0.0     0.0     0.0     0.0     0.0     0.0      1.     11.      4.      7.      7.      7.      8.     10.     26.     23.     0.0     0.0     0.0     0.0     0.0     0.0     0.0     0.0     0.0     0.0     0.0     0.0     0.0     0.0     0.0     0.0     0.0     0.0     0.0     0.0     0.0     0.0     0.0     0.0     0.0     0.0     0.0     0.0     0.0     0.0
   15 140    64    0.03    0.02    0.11    0.09    41.8   0.006   0.042   0.085   0.123     0.1     0.8     0.1     0.0     199    0.00    0.20    0.00    0.23     0.0     0.0     0.0     0.0     0.0     0.0     0.0     0.0     0.0     0.0      1.      7.      2.      7.      7.      7.      7.      9.     25.     23.     0.0     0.0     0.0     0.0     0.0     0.0     0.0     0.0     0.0     0.0     0.0     0.0     0.0     0.0     0.0     0.0     0.0     0.0     0.0     0.0     0.0     0.0     0.0     0.0     0.0     0.0     0.0     0.0     0.0     0.0
   15 141    65    0.03    0.02    0.11    0.09    41.9   0.006   0.042   0.085   0.124     0.1     0.7     0.1     0.0     188    0.00    0.19    0.00    0.20     0.0     0.0     0.0     0.0     0.0     0.0     0.0     0.0     0.0     0.0      2.      6.      2.      5.      6.      6.      7.      8.     24.     23.     0.0     0.0     0.0     0.0     0.0     0.0     0.0     0.0     0.0     0.0     0.0     0.0     0.0     0.0     0.0     0.0     0.0     0.0     0.0     0.0     0.0     0.0     0.0     0.0     0.0     0.0     0.0     0.0     0.0     0.0
   15 142    66    0.03    0.02    0.11    0.09    42.1   0.006   0.042   0.085   0.124     0.1     1.2     0.2     0.0     181    0.00    0.18    0.00    0.19     0.0     0.0     0.0     0.0     0.0     0.0     0.0     0.0     0.0     0.0      2.      8.      2.      4.      4.      5.      7.      8.     23.     22.     0.0     0.0     0.0     0.0     0.0     0.0     0.0     0.0     0.0     0.0     0.0     0.0     0.0     0.0     0.0     0.0     0.0     0.0     0.0     0.0     0.0     0.0     0.0     0.0     0.0     0.0     0.0     0.0     0.0     0.0
   15 143    67    0.03    0.02    0.11    0.09    42.3   0.006   0.042   0.085   0.124     0.2     1.8     0.3     0.0     168    0.00    0.17    0.00    0.18     0.0     0.0     0.0     0.0     0.0     0.0     0.0     0.0     0.0     0.0      0.      7.      2.      4.      4.      4.      6.      7.     21.     21.     0.0     0.0     0.0     0.0     0.0     0.0     0.0     0.0     0.0     0.0     0.0     0.0     0.0     0.0     0.0     0.0     0.0     0.0     0.0     0.0     0.0     0.0     0.0     0.0     0.0     0.0     0.0     0.0     0.0     0.0
   15 144    68    0.03    0.03    0.11    0.09    42.5   0.006   0.042   0.085   0.124     0.2     1.5     0.2     0.0     152    0.00    0.15    0.02    0.16     0.0     0.0     0.0     0.0     0.0     0.0     0.0     0.0     0.0     0.0      0.      5.      2.      3.      3.      3.      4.      5.     19.     19.     0.0     0.0     0.0     0.0     0.0     0.0     0.0     0.0     0.0     0.0     0.0     0.0     0.0     0.0     0.0     0.0     0.0     0.0     0.0     0.0     0.0     0.0     0.0     0.0     0.0     0.0     0.0     0.0     0.0     0.0
   15 145    69    0.03    0.03    0.11    0.09    42.6   0.006   0.043   0.085   0.124     0.2     1.8     0.3     0.0     140    0.00    0.14    0.02    0.15     0.0     0.0     0.0     0.0     0.0     0.0     0.0     0.0     0.0     0.0      0.      4.      2.      3.      3.      3.      3.      4.     15.     19.     0.0     0.0     0.0     0.0     0.0     0.0     0.0     0.0     0.0     0.0     0.0     0.0     0.0     0.0     0.0     0.0     0.0     0.0     0.0     0.0     0.0     0.0     0.0     0.0     0.0     0.0     0.0     0.0     0.0     0.0
   15 146    70    0.03    0.03    0.11    0.09    42.7   0.006   0.043   0.085   0.124     0.3     2.2     0.4     0.0     145    0.00    0.14    0.01    0.16     0.0     0.0     0.0     0.0     0.0     0.0     0.0     0.0     0.0     0.0      0.      3.      2.      3.      3.      3.      4.      5.     16.     20.     0.0     0.0     0.0     0.0     0.0     0.0     0.0     0.0     0.0     0.0     0.0     0.0     0.0     0.0     0.0     0.0     0.0     0.0     0.0     0.0     0.0     0.0     0.0     0.0     0.0     0.0     0.0     0.0     0.0     0.0
   15 147    71    0.03    0.03    0.11    0.09    42.9   0.006   0.043   0.085   0.125     0.3     2.5     0.4     0.0     146    0.00    0.15    0.00    0.16     0.0     0.0     0.0     0.0     0.0     0.0     0.0     0.0     0.0     0.0      0.      3.      1.      3.      3.      3.      4.      5.     16.     20.     0.0     0.0     0.0     0.0     0.0     0.0     0.0     0.0     0.0     0.0     0.0     0.0     0.0     0.0     0.0     0.0     0.0     0.0     0.0     0.0     0.0     0.0     0.0     0.0     0.0     0.0     0.0     0.0     0.0     0.0
   15 148    72    0.03    0.04    0.11    0.09    43.0   0.006   0.043   0.085   0.125     0.3     2.5     0.4     0.0     145    0.00    0.15    0.01    0.16     0.0     0.0     0.0     0.0     0.0     0.0     0.0     0.0     0.0     0.0      0.      3.      1.      2.      3.      3.      4.      5.     16.     20.     0.0     0.0     0.0     0.0     0.0     0.0     0.0     0.0     0.0     0.0     0.0     0.0     0.0     0.0     0.0     0.0     0.0     0.0     0.0     0.0     0.0     0.0     0.0     0.0     0.0     0.0     0.0     0.0     0.0     0.0
   15 149    73    0.03    0.04    0.11    0.09    43.2   0.006   0.043   0.085   0.125     0.3     2.5     0.4     0.2     148    0.02    0.15    0.19    0.19     0.0     0.0     0.0     0.0     0.0     0.0     0.0     0.0     0.2     0.0      0.      3.      1.      3.      3.      3.      4.      6.     16.     20.     0.0     0.0     0.0     0.0     0.0     0.0     0.0     0.0     0.0     0.0     0.0     0.0     0.0     0.0     0.0     0.0     0.0     0.0     0.2     0.0     0.0     0.0     0.0     0.0     0.0     0.0     0.0     0.0     0.0     0.0
   15 150    74    0.04    0.04    0.11    0.09    43.3   0.006   0.043   0.085   0.125     0.3     2.4     0.4     0.1     156    0.01    0.16    0.09    0.19     0.0     0.0     0.0     0.0     0.0     0.0     0.0     0.0     0.1     0.0      0.      4.      1.      3.      3.      4.      5.      6.     17.     21.     0.0     0.0     0.0     0.0     0.0     0.0     0.0     0.0     0.0     0.0     0.0     0.0     0.0     0.0     0.0     0.0     0.0     0.0     0.1     0.0     0.0     0.0     0.0     0.0     0.0     0.0     0.0     0.0     0.0     0.0
   15 151    75    0.04    0.04    0.11    0.09    43.5   0.006   0.043   0.085   0.125     0.3     2.3     0.4     0.0     160    0.00    0.16    0.01    0.19     0.0     0.0     0.0     0.0     0.0     0.0     0.0     0.0     0.0     0.0      0.      5.      1.      3.      4.      4.      5.      6.     17.     22.     0.0     0.0     0.0     0.0     0.0     0.0     0.0     0.0     0.0     0.0     0.0     0.0     0.0     0.0     0.0     0.0     0.0     0.0     0.0     0.0     0.0     0.0     0.0     0.0     0.0     0.0     0.0     0.0     0.0     0.0
   15 152    76    0.04    0.04    0.11    0.09    43.7   0.006   0.044   0.085   0.125     0.3     2.3     0.4     0.0     173    0.00    0.17    0.00    0.21     0.0     0.0     0.0     0.0     0.0     0.0     0.0     0.0     0.0     0.0      0.      6.      1.      3.      4.      4.      5.      6.     21.     23.     0.0     0.0     0.0     0.0     0.0     0.0     0.0     0.0     0.0     0.0     0.0     0.0     0.0     0.0     0.0     0.0     0.0     0.0     0.0     0.0     0.0     0.0     0.0     0.0     0.0     0.0     0.0     0.0     0.0     0.0
   15 153    77    0.04    0.05    0.11    0.09    49.1   0.006   0.049   0.085   0.148     1.3     2.2     4.6     0.0    5443    0.00    5.44    0.00   22.43     0.0     0.0     0.0     0.0     0.0     0.0     0.0     0.0     0.0     0.0   5241.     10.      2.      5.      6.      5.      6.      8.     24.     26.     5.2     0.0     0.0     0.0     0.0     0.0     0.0     0.0     0.0     0.0     0.0     0.0     0.0     0.0     0.0     0.0     0.0     0.0     0.0     0.0    22.2     0.0     0.0     0.0     0.0     0.0     0.0     0.0     0.0     0.0
   15 154    78    0.04    0.05    0.12    0.09    53.9   0.006   0.054   0.085   0.168     2.0     2.1     7.5     0.0    4827    0.00    4.83    0.00   19.96     0.0     0.0     0.0     0.0     0.0     0.0     0.0     0.0     0.0     0.0   4589.     15.      3.      7.      8.      7.      8.     10.     27.     30.     4.6     0.0     0.0     0.0     0.0     0.0     0.0     0.0     0.0     0.0     0.0     0.0     0.0     0.0     0.0     0.0     0.0     0.0     0.0     0.0    19.7     0.0     0.0     0.0     0.0     0.0     0.0     0.0     0.0     0.0
   15 155    79    0.04    0.05    0.13    0.09    57.6   0.006   0.058   0.085   0.183     2.4     2.1     9.1     0.0    3688    0.00    3.69    0.00   15.37     0.0     0.0     0.0     0.0     0.0     0.0     0.0     0.0     0.0     0.0   3424.     18.      4.      8.      9.      9.     10.     11.     29.     33.     3.4     0.0     0.0     0.0     0.0     0.0     0.0     0.0     0.0     0.0     0.0     0.0     0.0     0.0     0.0     0.0     0.0     0.0     0.0     0.0    15.0     0.1     0.0     0.0     0.0     0.0     0.0     0.0     0.0     0.0
   15 156    80    0.04    0.05    0.14    0.09    60.5   0.006   0.060   0.085   0.195     2.5     2.0     9.9     0.0    2855    0.00    2.85    0.00   12.17     0.0     0.0     0.0     0.0     0.0     0.0     0.0     0.0     0.0     0.0   2561.     22.      5.     10.     11.     10.     11.     12.     31.     36.     2.6     0.0     0.0     0.0     0.0     0.0     0.0     0.0     0.0     0.0     0.0     0.0     0.0     0.0     0.0     0.0     0.0     0.0     0.0     0.0    11.8     0.1     0.0     0.0     0.0     0.0     0.0     0.0     0.0     0.0
   15 157    81    0.05    0.06    0.15    0.09    62.9   0.006   0.063   0.085   0.206     2.5     2.0    10.2     0.0    2388    0.00    2.39    0.00   10.43     0.0     0.0     0.0     0.0     0.0     0.0     0.0     0.0     0.0     0.0   2052.     29.      7.     12.     13.     12.     13.     14.     34.     40.     2.1     0.0     0.0     0.0     0.0     0.0     0.0     0.0     0.0     0.0     0.0     0.0     0.0     0.0     0.0     0.0     0.0     0.0     0.0     0.0    10.0     0.1     0.0     0.0     0.0     0.0     0.0     0.0     0.0     0.0
   15 158    82    0.05    0.06    0.16    0.09    64.3   0.006   0.064   0.085   0.211     2.2     1.8     8.7     0.0    1440    0.00    1.44    0.00    5.10     0.0     0.0     0.0     0.0     0.0     0.0     0.0     0.0     0.0     0.0   1059.     38.      9.     16.     17.     15.     16.     17.     37.     42.     1.1     0.0     0.0     0.0     0.0     0.0     0.0     0.0     0.0     0.0     0.0     0.0     0.0     0.0     0.0     0.0     0.0     0.0     0.0     0.0     4.6     0.1     0.0     0.0     0.0     0.0     0.0     0.0     0.0     0.0
   15 159    83    0.05    0.06    0.17    0.09    65.3   0.006   0.065   0.085   0.214     2.0     1.7     7.7     0.0     963    0.00    0.96    0.00    3.10     0.0     0.0     0.0     0.0     0.0     0.0     0.0     0.0     0.0     0.0    558.     42.     10.     18.     19.     16.     17.     18.     39.     44.     0.6     0.0     0.0     0.0     0.0     0.0     0.0     0.0     0.0     0.0     0.0     0.0     0.0     0.0     0.0     0.0     0.0     0.0     0.0     0.0     2.5     0.1     0.0     0.0     0.0     0.0     0.0     0.0     0.0     0.0
   15 160    84    0.05    0.06    0.17    0.09    65.8   0.006   0.066   0.085   0.215     0.6     0.6     2.3     0.0     488    0.00    0.49    0.00    0.54     0.0     0.0     0.0     0.0     0.0     0.0     0.0     0.0     0.0     0.0    115.     18.      9.     18.     19.     16.     17.     18.     37.     42.     0.1     0.0     0.0     0.0     0.0     0.0     0.0     0.0     0.0     0.0     0.0     0.0     0.0     0.0     0.0     0.0     0.0     0.0     0.0     0.0     0.1     0.0     0.0     0.0     0.0     0.0     0.0     0.0     0.0     0.0
   15 161    85    0.05    0.06    0.17    0.09    66.1   0.006   0.066   0.085   0.215     1.1     1.2     3.9     0.0     342    0.00    0.34    0.00    0.44     0.0     0.0     0.0     0.0     0.0     0.0     0.0     0.0     0.0     0.0      0.     13.      5.     16.     17.     15.     16.     16.     34.     39.     0.0     0.0     0.0     0.0     0.0     0.0     0.0     0.0     0.0     0.0     0.0     0.0     0.0     0.0     0.0     0.0     0.0     0.0     0.0     0.0     0.0     0.0     0.0     0.0     0.0     0.0     0.0     0.0     0.0     0.0
   15 162    86    0.05    0.06    0.18    0.09    66.4   0.006   0.066   0.085   0.215     1.2     1.4     4.3     0.0     313    0.00    0.31    0.00    0.39     0.0     0.0     0.0     0.0     0.0     0.0     0.0     0.0     0.0     0.0      0.     10.      3.     14.     15.     14.     14.     15.     31.     35.     0.0     0.0     0.0     0.0     0.0     0.0     0.0     0.0     0.0     0.0     0.0     0.0     0.0     0.0     0.0     0.0     0.0     0.0     0.0     0.0     0.0     0.0     0.0     0.0     0.0     0.0     0.0     0.0     0.0     0.0
   15 163    87    0.05    0.06    0.18    0.09    66.7   0.006   0.067   0.085   0.216     1.2     1.6     4.3     0.0     296    0.00    0.30    0.00    0.37     0.0     0.0     0.0     0.0     0.0     0.0     0.0     0.0     0.0     0.0      0.      9.      3.     13.     14.     13.     13.     14.     29.     33.     0.0     0.0     0.0     0.0     0.0     0.0     0.0     0.0     0.0     0.0     0.0     0.0     0.0     0.0     0.0     0.0     0.0     0.0     0.0     0.0     0.0     0.0     0.0     0.0     0.0     0.0     0.0     0.0     0.0     0.0
   15 164    88    0.06    0.06    0.19    0.09    67.0   0.006   0.067   0.085   0.216     1.1     1.5     3.7     0.0     292    0.00    0.29    0.00    0.37     0.0     0.0     0.0     0.0     0.0     0.0     0.0     0.0     0.0     0.0      0.     10.      3.     12.     14.     12.     13.     13.     28.     32.     0.0     0.0     0.0     0.0     0.0     0.0     0.0     0.0     0.0     0.0     0.0     0.0     0.0     0.0     0.0     0.0     0.0     0.0     0.0     0.0     0.0     0.0     0.0     0.0     0.0     0.0     0.0     0.0     0.0     0.0
   15 165    89    0.06    0.07    0.19    0.09    67.3   0.006   0.067   0.085   0.217     0.5     0.7     1.5     0.0     301    0.00    0.30    0.00    0.37     0.0     0.0     0.0     0.0     0.0     0.0     0.0     0.0     0.0     0.0      1.      8.      3.     13.     15.     13.     14.     14.     29.     32.     0.0     0.0     0.0     0.0     0.0     0.0     0.0     0.0     0.0     0.0     0.0     0.0     0.0     0.0     0.0     0.0     0.0     0.0     0.0     0.0     0.0     0.0     0.0     0.0     0.0     0.0     0.0     0.0     0.0     0.0
   15 166    90    0.06    0.07    0.19    0.09    67.6   0.006   0.068   0.085   0.217     0.4     0.6     1.2     0.0     328    0.00    0.33    0.00    0.37     0.0     0.0     0.0     0.0     0.0     0.0     0.0     0.0     0.0     0.0      3.     13.      3.      9.     16.     15.     15.     16.     32.     34.     0.0     0.0     0.0     0.0     0.0     0.0     0.0     0.0     0.0     0.0     0.0     0.0     0.0     0.0     0.0     0.0     0.0     0.0     0.0     0.0     0.0     0.0     0.0     0.0     0.0     0.0     0.0     0.0     0.0     0.0
   15 167    91    0.06    0.07    0.19    0.09    68.0   0.006   0.068   0.085   0.217     0.3     0.5     1.0     0.0     329    0.00    0.33    0.00    0.33     0.0     0.0     0.0     0.0     0.0     0.0     0.0     0.0     0.0     0.0      4.     19.      4.      7.     10.     14.     16.     16.     32.     33.     0.0     0.0     0.0     0.0     0.0     0.0     0.0     0.0     0.0     0.0     0.0     0.0     0.0     0.0     0.0     0.0     0.0     0.0     0.0     0.0     0.0     0.0     0.0     0.0     0.0     0.0     0.0     0.0     0.0     0.0
   15 168    92    0.06    0.07    0.19    0.09    68.3   0.006   0.068   0.085   0.218     0.5     0.9     1.6     0.0     318    0.00    0.32    0.00    0.34     0.0     0.0     0.0     0.0     0.0     0.0     0.0     0.0     0.0     0.0      0.     22.      5.     10.     10.     11.     12.     14.     31.     32.     0.0     0.0     0.0     0.0     0.0     0.0     0.0     0.0     0.0     0.0     0.0     0.0     0.0     0.0     0.0     0.0     0.0     0.0     0.0     0.0     0.0     0.0     0.0     0.0     0.0     0.0     0.0     0.0     0.0     0.0
   15 169    93    0.06    0.07    0.19    0.09    68.6   0.006   0.069   0.085   0.218     0.7     1.2     2.0     0.0     288    0.00    0.29    0.00    0.33     0.0     0.0     0.0     0.0     0.0     0.0     0.0     0.0     0.0     0.0      0.     15.      4.      9.      8.      9.     11.     12.     28.     29.     0.0     0.0     0.0     0.0     0.0     0.0     0.0     0.0     0.0     0.0     0.0     0.0     0.0     0.0     0.0     0.0     0.0     0.0     0.0     0.0     0.0     0.0     0.0     0.0     0.0     0.0     0.0     0.0     0.0     0.0
   15 170    94    0.06    0.07    0.19    0.09    68.8   0.006   0.069   0.085   0.218     0.2     0.4     0.7     0.0     262    0.00    0.26    0.02    0.28     0.0     0.0     0.0     0.0     0.0     0.0     0.0     0.0     0.0     0.0      3.     13.      3.      7.      7.      6.      9.     11.     25.     25.     0.0     0.0     0.0     0.0     0.0     0.0     0.0     0.0     0.0     0.0     0.0     0.0     0.0     0.0     0.0     0.0     0.0     0.0     0.0     0.0     0.0     0.0     0.0     0.0     0.0     0.0     0.0     0.0     0.0     0.0
   15 171    95    0.06    0.07    0.20    0.09    69.1   0.006   0.069   0.085   0.218     0.4     0.8     1.2     0.0     231    0.00    0.23    0.00    0.26     0.0     0.0     0.0     0.0     0.0     0.0     0.0     0.0     0.0     0.0      0.     10.      3.      5.      6.      5.      7.      9.     22.     22.     0.0     0.0     0.0     0.0     0.0     0.0     0.0     0.0     0.0     0.0     0.0     0.0     0.0     0.0     0.0     0.0     0.0     0.0     0.0     0.0     0.0     0.0     0.0     0.0     0.0     0.0     0.0     0.0     0.0     0.0
   15 172    96    0.06    0.07    0.20    0.09    69.3   0.006   0.069   0.085   0.219     0.5     1.0     1.4     0.0     214    0.00    0.21    0.00    0.25     0.0     0.0     0.0     0.0     0.0     0.0     0.0     0.0     0.0     0.0      0.      7.      2.      4.      5.      5.      7.      8.     20.     21.     0.0     0.0     0.0     0.0     0.0     0.0     0.0     0.0     0.0     0.0     0.0     0.0     0.0     0.0     0.0     0.0     0.0     0.0     0.0     0.0     0.0     0.0     0.0     0.0     0.0     0.0     0.0     0.0     0.0     0.0
   15 173    97    0.06    0.07    0.20    0.09    69.5   0.006   0.069   0.085   0.219     0.5     1.1     1.4     0.0     202    0.00    0.20    0.00    0.23     0.0     0.0     0.0     0.0     0.0     0.0     0.0     0.0     0.0     0.0      0.      5.      2.      4.      5.      5.      6.      7.     19.     19.     0.0     0.0     0.0     0.0     0.0     0.0     0.0     0.0     0.0     0.0     0.0     0.0     0.0     0.0     0.0     0.0     0.0     0.0     0.0     0.0     0.0     0.0     0.0     0.0     0.0     0.0     0.0     0.0     0.0     0.0
   15 174    98    0.06    0.07    0.20    0.09    69.7   0.006   0.070   0.085   0.219     0.2     0.3     0.4     0.0     200    0.00    0.20    0.00    0.21     0.0     0.0     0.0     0.0     0.0     0.0     0.0     0.0     0.0     0.0      2.      6.      2.      3.      4.      4.      6.      7.     18.     18.     0.0     0.0     0.0     0.0     0.0     0.0     0.0     0.0     0.0     0.0     0.0     0.0     0.0     0.0     0.0     0.0     0.0     0.0     0.0     0.0     0.0     0.0     0.0     0.0     0.0     0.0     0.0     0.0     0.0     0.0
   15 175    99    0.06    0.07    0.20    0.09    69.9   0.006   0.070   0.085   0.219     0.2     0.5     0.6     0.0     196    0.00    0.20    0.00    0.21     0.0     0.0     0.0     0.0     0.0     0.0     0.0     0.0     0.0     0.0      1.      7.      2.      3.      4.      4.      5.      7.     18.     18.     0.0     0.0     0.0     0.0     0.0     0.0     0.0     0.0     0.0     0.0     0.0     0.0     0.0     0.0     0.0     0.0     0.0     0.0     0.0     0.0     0.0     0.0     0.0     0.0     0.0     0.0     0.0     0.0     0.0     0.0
   15 176   100    0.06    0.07    0.20    0.09    70.1   0.006   0.070   0.085   0.220     0.4     0.8     0.9     0.0     193    0.00    0.19    0.00    0.22     0.0     0.0     0.0     0.0     0.0     0.0     0.0     0.0     0.0     0.0      0.      6.      2.      3.      4.      4.      5.      7.     17.     17.     0.0     0.0     0.0     0.0     0.0     0.0     0.0     0.0     0.0     0.0     0.0     0.0     0.0     0.0     0.0     0.0     0.0     0.0     0.0     0.0     0.0     0.0     0.0     0.0     0.0     0.0     0.0     0.0     0.0     0.0
   15 177   101    0.06    0.07    0.20    0.09    70.3   0.006   0.070   0.085   0.220     0.4     0.9     1.0     0.0     195    0.00    0.19    0.00    0.22     0.0     0.0     0.0     0.0     0.0     0.0     0.0     0.0     0.0     0.0      0.      5.      2.      4.      4.      5.      6.      7.     17.     17.     0.0     0.0     0.0     0.0     0.0     0.0     0.0     0.0     0.0     0.0     0.0     0.0     0.0     0.0     0.0     0.0     0.0     0.0     0.0     0.0     0.0     0.0     0.0     0.0     0.0     0.0     0.0     0.0     0.0     0.0
   15 178   102    0.06    0.08    0.20    0.09    70.5   0.006   0.070   0.085   0.220     0.4     0.9     0.9     0.0     203    0.00    0.20    0.00    0.24     0.0     0.0     0.0     0.0     0.0     0.0     0.0     0.0     0.0     0.0      0.      6.      2.      4.      5.      5.      6.      7.     18.     18.     0.0     0.0     0.0     0.0     0.0     0.0     0.0     0.0     0.0     0.0     0.0     0.0     0.0     0.0     0.0     0.0     0.0     0.0     0.0     0.0     0.0     0.0     0.0     0.0     0.0     0.0     0.0     0.0     0.0     0.0
   15 179   103    0.06    0.08    0.20    0.09    70.7   0.006   0.071   0.085   0.220     0.4     0.8     0.8     0.0     213    0.00    0.21    0.00    0.26     0.0     0.0     0.0     0.0     0.0     0.0     0.0     0.0     0.0     0.0      0.      9.      2.      5.      6.      6.      7.      8.     19.     18.     0.0     0.0     0.0     0.0     0.0     0.0     0.0     0.0     0.0     0.0     0.0     0.0     0.0     0.0     0.0     0.0     0.0     0.0     0.0     0.0     0.0     0.0     0.0     0.0     0.0     0.0     0.0     0.0     0.0     0.0
   15 180   104    0.06    0.08    0.20    0.09    70.9   0.006   0.071   0.085   0.221     0.4     0.7     0.7     0.0     234    0.00    0.23    0.00    0.30     0.0     0.0     0.0     0.0     0.0     0.0     0.0     0.0     0.0     0.0      3.     11.      3.      6.      7.      7.      7.      9.     20.     20.     0.0     0.0     0.0     0.0     0.0     0.0     0.0     0.0     0.0     0.0     0.0     0.0     0.0     0.0     0.0     0.0     0.0     0.0     0.0     0.0     0.0     0.0     0.0     0.0     0.0     0.0     0.0     0.0     0.0     0.0
   15 181   105    0.06    0.08    0.20    0.09    71.2   0.006   0.071   0.085   0.221     0.3     0.7     0.6     0.0     260    0.00    0.26    0.00    0.35     0.0     0.0     0.0     0.0     0.0     0.0     0.0     0.0     0.0     0.0      6.     14.      3.      7.      8.      8.      9.     10.     22.     22.     0.0     0.0     0.0     0.0     0.0     0.0     0.0     0.0     0.0     0.0     0.0     0.0     0.0     0.0     0.0     0.0     0.0     0.0     0.0     0.0     0.0     0.0     0.0     0.0     0.0     0.0     0.0     0.0     0.0     0.0
   15 182   106    0.06    0.08    0.20    0.09    71.5   0.006   0.071   0.085   0.221     0.3     0.6     0.6     0.0     301    0.00    0.30    0.00    0.43     0.0     0.0     0.0     0.0     0.0     0.0     0.0     0.0     0.0     0.0     11.     20.      5.     10.     11.     10.     11.     11.     25.     24.     0.0     0.0     0.0     0.0     0.0     0.0     0.0     0.0     0.0     0.0     0.0     0.0     0.0     0.0     0.0     0.0     0.0     0.0     0.0     0.0     0.1     0.1     0.0     0.0     0.0     0.0     0.0     0.0     0.0     0.0
   15 183   107    0.06    0.08    0.20    0.09    71.8   0.006   0.072   0.085   0.222     0.3     0.6     0.6     0.0     342    0.00    0.34    0.00    0.53     0.0     0.0     0.0     0.0     0.0     0.0     0.0     0.0     0.0     0.0     16.     27.      7.     13.     13.     12.     13.     13.     28.     27.     0.0     0.0     0.0     0.0     0.0     0.0     0.0     0.0     0.0     0.0     0.0     0.0     0.0     0.0     0.0     0.0     0.0     0.0     0.0     0.0     0.1     0.1     0.0     0.0     0.0     0.0     0.0     0.0     0.0     0.0
   15 184   108    0.07    0.08    0.21    0.09    79.9   0.006   0.080   0.085   0.263     1.9     0.5     9.0     0.0    8060    0.00    8.06    0.00   41.28     0.0     0.0     0.0     0.0     0.0     0.0     0.0     0.0     0.0     0.0   7696.     33.      8.     16.     16.     14.     15.     15.     31.     29.     7.7     0.0     0.0     0.0     0.0     0.0     0.0     0.0     0.0     0.0     0.0     0.0     0.0     0.0     0.0     0.0     0.0     0.0     0.0     0.0    40.8     0.1     0.0     0.0     0.0     0.0     0.0     0.0     0.0     0.0
   15 185   109    0.07    0.08    0.23    0.09    86.5   0.006   0.086   0.085   0.298     2.9     0.5    14.5     0.0    6606    0.00    6.61    0.00   34.61     0.0     0.0     0.0     0.0     0.0     0.0     0.0     0.0     0.0     0.0   6199.     41.     10.     19.     19.     17.     17.     18.     34.     33.     6.2     0.0     0.0     0.0     0.0     0.0     0.0     0.0     0.0     0.0     0.0     0.0     0.0     0.0     0.0     0.0     0.0     0.0     0.0     0.0    34.0     0.1     0.0     0.0     0.0     0.0     0.0     0.0     0.0     0.0
   15 186   110    0.07    0.08    0.25    0.09    91.8   0.006   0.092   0.085   0.326     3.4     0.5    17.5     0.0    5323    0.00    5.32    0.00   28.05     0.0     0.0     0.0     0.0     0.0     0.0     0.0     0.0     0.0     0.0   4871.     48.     12.     22.     23.     20.     20.     21.     38.     36.     4.9     0.0     0.0     0.0     0.0     0.0     0.0     0.0     0.0     0.0     0.0     0.0     0.0     0.0     0.0     0.0     0.0     0.0     0.0     0.0    27.4     0.2     0.0     0.1     0.0     0.0     0.0     0.0     0.0     0.0
   15 187   111    0.07    0.08    0.26    0.09    95.6   0.006   0.096   0.085   0.346     3.5     0.4    18.1     0.0    3828    0.00    3.83    0.00   19.89     0.0     0.0     0.0     0.0     0.0     0.0     0.0     0.0     0.0     0.0   3338.     53.     14.     25.     25.     22.     23.     23.     42.     40.     3.3     0.1     0.0     0.0     0.0     0.0     0.0     0.0     0.0     0.0     0.0     0.0     0.0     0.0     0.0     0.0     0.0     0.0     0.0     0.0    19.1     0.2     0.0     0.1     0.0     0.0     0.0     0.0     0.0     0.0
   15 188   112    0.08    0.08    0.28    0.09    97.1   0.006   0.097   0.085   0.352     3.0     0.4    15.6     0.0    1431    0.00    1.43    0.00    6.18     0.0     0.0     0.0     0.0     0.0     0.0     0.0     0.0     0.0     0.0    921.     55.     14.     26.     26.     23.     24.     24.     44.     42.     0.9     0.1     0.0     0.0     0.0     0.0     0.0     0.0     0.0     0.0     0.0     0.0     0.0     0.0     0.0     0.0     0.0     0.0     0.0     0.0     5.4     0.2     0.0     0.1     0.1     0.0     0.0     0.0     0.0     0.0
   15 189   113    0.08    0.08    0.29    0.09    98.5   0.006   0.099   0.085   0.357     2.4     0.3    11.8     0.0    1488    0.00    1.49    0.00    5.19     0.0     0.0     0.0     0.0     0.0     0.0     0.0     0.0     0.0     0.0    958.     56.     14.     27.     27.     24.     25.     26.     47.     44.     1.0     0.1     0.0     0.0     0.0     0.0     0.0     0.0     0.0     0.0     0.0     0.0     0.0     0.0     0.0     0.0     0.0     0.0     0.0     0.0     4.3     0.2     0.0     0.1     0.1     0.0     0.0     0.0     0.1     0.0
   15 190   114    0.08    0.08    0.30    0.09    99.5   0.006   0.100   0.085   0.360     1.9     0.3     9.5     0.0     975    0.00    0.98    0.00    2.59     0.0     0.0     0.0     0.0     0.0     0.0     0.0     0.0     0.0     0.0    463.     51.     12.     25.     26.     23.     24.     26.     48.     46.     0.5     0.1     0.0     0.0     0.0     0.0     0.0     0.0     0.0     0.0     0.0     0.0     0.0     0.0     0.0     0.0     0.0     0.0     0.0     0.0     1.8     0.2     0.0     0.1     0.1     0.0     0.0     0.0     0.1     0.0
   15 191   115    0.08    0.08    0.31    0.09   100.3   0.006   0.100   0.085   0.362     1.7     0.3     8.2     0.0     754    0.00    0.75    0.00    1.93     0.0     0.0     0.0     0.0     0.0     0.0     0.0     0.0     0.0     0.0    288.     47.      9.     22.     22.     20.     22.     23.     46.     44.     0.3     0.0     0.0     0.0     0.0     0.0     0.0     0.0     0.0     0.0     0.0     0.0     0.0     0.0     0.0     0.0     0.0     0.0     0.0     0.0     1.2     0.2     0.0     0.1     0.0     0.0     0.0     0.0     0.1     0.0
   15 192   116    0.09    0.08    0.32    0.09   100.9   0.006   0.101   0.085   0.363     1.5     0.3     6.9     0.0     610    0.00    0.61    0.00    1.45     0.0     0.0     0.0     0.0     0.0     0.0     0.0     0.0     0.0     0.0    191.     41.      8.     19.     19.     17.     19.     21.     42.     40.     0.2     0.0     0.0     0.0     0.0     0.0     0.0     0.0     0.0     0.0     0.0     0.0     0.0     0.0     0.0     0.0     0.0     0.0     0.0     0.0     0.8     0.2     0.0     0.0     0.0     0.0     0.0     0.0     0.0     0.0
   15 193   117    0.09    0.08    0.32    0.09   101.4   0.006   0.101   0.085   0.364     1.3     0.2     6.0     0.0     543    0.00    0.54    0.00    1.26     0.0     0.0     0.0     0.0     0.0     0.0     0.0     0.0     0.0     0.0    142.     39.      7.     18.     18.     16.     18.     20.     41.     40.     0.1     0.0     0.0     0.0     0.0     0.0     0.0     0.0     0.0     0.0     0.0     0.0     0.0     0.0     0.0     0.0     0.0     0.0     0.0     0.0     0.6     0.2     0.0     0.0     0.0     0.0     0.0     0.0     0.0     0.0
   15 194   118    0.09    0.08    0.33    0.09   101.9   0.006   0.102   0.085   0.365     1.2     0.2     5.2     0.0     480    0.00    0.48    0.00    1.10     0.0     0.0     0.0     0.0     0.0     0.0     0.0     0.0     0.0     0.0    102.     35.      6.     16.     17.     15.     17.     19.     39.     38.     0.1     0.0     0.0     0.0     0.0     0.0     0.0     0.0     0.0     0.0     0.0     0.0     0.0     0.0     0.0     0.0     0.0     0.0     0.0     0.0     0.5     0.1     0.0     0.0     0.0     0.0     0.0     0.0     0.0     0.0
   15 195   119    0.09    0.08    0.33    0.09   102.4   0.006   0.102   0.085   0.366     1.0     0.2     4.3     0.0     457    0.00    0.46    0.00    0.99     0.0     0.0     0.0     0.0     0.0     0.0     0.0     0.0     0.0     0.0     83.     34.      6.     16.     16.     15.     16.     18.     39.     38.     0.1     0.0     0.0     0.0     0.0     0.0     0.0     0.0     0.0     0.0     0.0     0.0     0.0     0.0     0.0     0.0     0.0     0.0     0.0     0.0     0.4     0.1     0.0     0.0     0.0     0.0     0.0     0.0     0.0     0.0
   15 196   120    0.09    0.08    0.34    0.09   102.8   0.006   0.103   0.085   0.367     0.9     0.2     3.7     0.0     454    0.00    0.45    0.00    0.95     0.0     0.0     0.0     0.0     0.0     0.0     0.0     0.0     0.0     0.0     68.     35.      6.     17.     17.     15.     17.     19.     39.     38.     0.1     0.0     0.0     0.0     0.0     0.0     0.0     0.0     0.0     0.0     0.0     0.0     0.0     0.0     0.0     0.0     0.0     0.0     0.0     0.0     0.3     0.1     0.0     0.0     0.0     0.0     0.0     0.0     0.0     0.0
   15 197   121    0.09    0.08    0.34    0.09   103.3   0.006   0.103   0.085   0.368     0.8     0.2     3.1     0.0     458    0.00    0.46    0.00    0.92     0.0     0.0     0.0     0.0     0.0     0.0     0.0     0.0     0.0     0.0     53.     36.      7.     17.     18.     16.     17.     19.     41.     39.     0.1     0.0     0.0     0.0     0.0     0.0     0.0     0.0     0.0     0.0     0.0     0.0     0.0     0.0     0.0     0.0     0.0     0.0     0.0     0.0     0.3     0.2     0.0     0.0     0.0     0.0     0.0     0.0     0.0     0.0
   15 198   122    0.09    0.08    0.34    0.09   103.7   0.006   0.104   0.085   0.369     0.7     0.2     2.7     0.0     452    0.00    0.45    0.00    0.87     0.0     0.0     0.0     0.0     0.0     0.0     0.0     0.0     0.0     0.0     40.     34.      7.     18.     18.     16.     17.     19.     41.     40.     0.0     0.0     0.0     0.0     0.0     0.0     0.0     0.0     0.0     0.0     0.0     0.0     0.0     0.0     0.0     0.0     0.0     0.0     0.0     0.0     0.2     0.1     0.0     0.1     0.0     0.0     0.0     0.0     0.0     0.0
   15 199   123    0.09    0.08    0.34    0.09   104.2   0.006   0.104   0.085   0.370     0.6     0.2     2.3     0.0     451    0.00    0.45    0.00    0.84     0.0     0.0     0.0     0.0     0.0     0.0     0.0     0.0     0.0     0.0     32.     33.      7.     18.     18.     16.     17.     19.     42.     41.     0.0     0.0     0.0     0.0     0.0     0.0     0.0     0.0     0.0     0.0     0.0     0.0     0.0     0.0     0.0     0.0     0.0     0.0     0.0     0.0     0.2     0.1     0.0     0.1     0.0     0.0     0.0     0.0     0.0     0.0
   15 200   124    0.09    0.08    0.35    0.09   104.6   0.006   0.105   0.085   0.371     0.6     0.1     2.0     0.0     447    0.00    0.45    0.00    0.80     0.0     0.0     0.0     0.0     0.0     0.0     0.0     0.0     0.0     0.0     25.     31.      7.     17.     18.     15.     17.     19.     43.     41.     0.0     0.0     0.0     0.0     0.0     0.0     0.0     0.0     0.0     0.0     0.0     0.0     0.0     0.0     0.0     0.0     0.0     0.0     0.0     0.0     0.1     0.1     0.0     0.1     0.0     0.0     0.0     0.0     0.0     0.0
   15 201   125    0.09    0.08    0.35    0.09   105.1   0.006   0.105   0.085   0.372     0.5     0.1     1.7     0.0     436    0.00    0.44    0.00    0.75     0.0     0.0     0.0     0.0     0.0     0.0     0.0     0.0     0.0     0.0     19.     28.      7.     16.     17.     15.     16.     17.     42.     40.     0.0     0.0     0.0     0.0     0.0     0.0     0.0     0.0     0.0     0.0     0.0     0.0     0.0     0.0     0.0     0.0     0.0     0.0     0.0     0.0     0.1     0.1     0.0     0.0     0.0     0.0     0.0     0.0     0.0     0.0
   15 202   126    0.09    0.08    0.35    0.09   105.5   0.006   0.105   0.085   0.372     0.5     0.1     1.5     0.0     424    0.00    0.42    0.00    0.71     0.0     0.0     0.0     0.0     0.0     0.0     0.0     0.0     0.0     0.0     14.     26.      7.     15.     16.     14.     15.     16.     41.     40.     0.0     0.0     0.0     0.0     0.0     0.0     0.0     0.0     0.0     0.0     0.0     0.0     0.0     0.0     0.0     0.0     0.0     0.0     0.0     0.0     0.1     0.1     0.0     0.0     0.0     0.0     0.0     0.0     0.0     0.0
   15 203   127    0.09    0.08    0.35    0.09   105.9   0.006   0.106   0.085   0.373     0.4     0.1     1.3     0.0     415    0.00    0.42    0.00    0.67     0.0     0.0     0.0     0.0     0.0     0.0     0.0     0.0     0.0     0.0     10.     24.      7.     15.     15.     13.     14.     15.     40.     39.     0.0     0.0     0.0     0.0     0.0     0.0     0.0     0.0     0.0     0.0     0.0     0.0     0.0     0.0     0.0     0.0     0.0     0.0     0.0     0.0     0.1     0.1     0.0     0.0     0.0     0.0     0.0     0.0     0.0     0.0
   15 204   128    0.09    0.08    0.35    0.09   106.3   0.006   0.106   0.085   0.374     0.4     0.1     1.1     0.0     403    0.00    0.40    0.00    1.59     0.0     0.0     0.0     0.0     0.0     0.0     0.0     0.0     0.0     0.0      7.     22.      7.     14.     14.     12.     13.     14.     38.     37.     0.0     0.0     0.0     0.0     0.0     0.0     0.0     0.0     0.0     0.0     0.0     0.0     0.0     0.0     0.0     0.0     0.0     0.0     0.0     0.0     0.1     0.2     0.1     0.1     0.1     0.1     0.1     0.1     0.1     0.1
   15 205   129    0.09    0.08    0.35    0.09   106.7   0.006   0.107   0.085   0.375     0.4     0.1     1.0     0.0     385    0.00    0.38    0.00    1.02     0.0     0.0     0.0     0.0     0.0     0.0     0.0     0.0     0.0     0.0      6.     19.      7.     13.     13.     11.     12.     12.     35.     34.     0.0     0.0     0.0     0.0     0.0     0.0     0.0     0.0     0.0     0.0     0.0     0.0     0.0     0.0     0.0     0.0     0.0     0.0     0.0     0.0     0.1     0.2     0.0     0.1     0.1     0.0     0.0     0.0     0.1     0.1
   15 206   130    0.10    0.08    0.35    0.09   107.1   0.006   0.107   0.085   0.376     0.4     0.1     0.9     0.0     369    0.00    0.37    0.00    0.65     0.0     0.0     0.0     0.0     0.0     0.0     0.0     0.0     0.0     0.0      4.     18.      6.     12.     12.     11.     11.     11.     31.     31.     0.0     0.0     0.0     0.0     0.0     0.0     0.0     0.0     0.0     0.0     0.0     0.0     0.0     0.0     0.0     0.0     0.0     0.0     0.0     0.0     0.0     0.1     0.0     0.0     0.0     0.0     0.0     0.0     0.0     0.0
   15 207   131    0.10    0.08    0.35    0.09   107.4   0.006   0.107   0.085   0.377     0.3     0.1     0.8     0.0     346    0.00    0.35    0.00    0.53     0.0     0.0     0.0     0.0     0.0     0.0     0.0     0.0     0.0     0.0      4.     16.      6.     11.     11.     10.     10.     10.     27.     27.     0.0     0.0     0.0     0.0     0.0     0.0     0.0     0.0     0.0     0.0     0.0     0.0     0.0     0.0     0.0     0.0     0.0     0.0     0.0     0.0     0.0     0.1     0.0     0.0     0.0     0.0     0.0     0.0     0.0     0.0
   15 208   132    0.10    0.08    0.35    0.09   107.7   0.006   0.108   0.085   0.377     0.3     0.1     0.8     0.0     310    0.00    0.31    0.00    0.46     0.0     0.0     0.0     0.0     0.0     0.0     0.0     0.0     0.0     0.0      3.     13.      5.     10.     10.      8.      8.      9.     23.     23.     0.0     0.0     0.0     0.0     0.0     0.0     0.0     0.0     0.0     0.0     0.0     0.0     0.0     0.0     0.0     0.0     0.0     0.0     0.0     0.0     0.0     0.1     0.0     0.0     0.0     0.0     0.0     0.0     0.0     0.0
   15 209   133    0.10    0.08    0.35    0.09   108.0   0.006   0.108   0.085   0.378     0.3     0.1     0.6     0.0     287    0.00    0.29    0.00    0.43     0.0     0.0     0.0     0.0     0.0     0.0     0.0     0.0     0.0     0.0      5.     12.      5.      9.      9.      7.      8.      8.     19.     20.     0.0     0.0     0.0     0.0     0.0     0.0     0.0     0.0     0.0     0.0     0.0     0.0     0.0     0.0     0.0     0.0     0.0     0.0     0.0     0.0     0.0     0.1     0.0     0.0     0.0     0.0     0.0     0.0     0.0     0.0
   15 210   134    0.10    0.08    0.36    0.09   108.3   0.006   0.108   0.085   0.378     0.3     0.1     0.6     0.0     277    0.00    0.28    0.00    0.42     0.0     0.0     0.0     0.0     0.0     0.0     0.0     0.0     0.0     0.0      7.     11.      5.      8.      8.      7.      7.      7.     18.     18.     0.0     0.0     0.0     0.0     0.0     0.0     0.0     0.0     0.0     0.0     0.0     0.0     0.0     0.0     0.0     0.0     0.0     0.0     0.0     0.0     0.0     0.1     0.0     0.0     0.0     0.0     0.0     0.0     0.0     0.0
   15 211   135    0.10    0.08    0.36    0.09   108.5   0.006   0.109   0.085   0.378     0.3     0.0     0.6     0.0     256    0.00    0.26    0.00    0.39     0.0     0.0     0.0     0.0     0.0     0.0     0.0     0.0     0.0     0.0      7.     10.      4.      7.      7.      6.      6.      6.     16.     16.     0.0     0.0     0.0     0.0     0.0     0.0     0.0     0.0     0.0     0.0     0.0     0.0     0.0     0.0     0.0     0.0     0.0     0.0     0.0     0.0     0.0     0.0     0.0     0.0     0.0     0.0     0.0     0.0     0.0     0.0
   15 212   136    0.10    0.08    0.36    0.09   108.8   0.006   0.109   0.085   0.379     0.3     0.0     0.6     0.0     241    0.00    0.24    0.00    0.36     0.0     0.0     0.0     0.0     0.0     0.0     0.0     0.0     0.0     0.0      5.      9.      4.      7.      7.      6.      6.      6.     14.     15.     0.0     0.0     0.0     0.0     0.0     0.0     0.0     0.0     0.0     0.0     0.0     0.0     0.0     0.0     0.0     0.0     0.0     0.0     0.0     0.0     0.0     0.0     0.0     0.0     0.0     0.0     0.0     0.0     0.0     0.0
   15 213   137    0.10    0.08    0.36    0.09   109.0   0.006   0.109   0.085   0.379     0.3     0.0     0.6     0.0     239    0.00    0.24    0.00    0.36     0.0     0.0     0.0     0.0     0.0     0.0     0.0     0.0     0.0     0.0      6.      9.      4.      7.      7.      6.      6.      6.     14.     14.     0.0     0.0     0.0     0.0     0.0     0.0     0.0     0.0     0.0     0.0     0.0     0.0     0.0     0.0     0.0     0.0     0.0     0.0     0.0     0.0     0.0     0.0     0.0     0.0     0.0     0.0     0.0     0.0     0.0     0.0
   15 214   138    0.10    0.09    0.36    0.09   109.2   0.006   0.109   0.085   0.379     0.3     0.0     0.6     0.0     235    0.00    0.23    0.00    0.36     0.0     0.0     0.0     0.0     0.0     0.0     0.0     0.0     0.0     0.0      6.      9.      4.      7.      7.      6.      6.      6.     14.     14.     0.0     0.0     0.0     0.0     0.0     0.0     0.0     0.0     0.0     0.0     0.0     0.0     0.0     0.0     0.0     0.0     0.0     0.0     0.0     0.0     0.0     0.0     0.0     0.0     0.0     0.0     0.0     0.0     0.0     0.0
   15 215   139    0.10    0.09    0.36    0.09   109.5   0.006   0.109   0.085   0.380     0.3     0.0     0.5     0.0     236    0.00    0.24    0.00    0.36     0.0     0.0     0.0     0.0     0.0     0.0     0.0     0.0     0.0     0.0      6.      9.      4.      7.      7.      6.      6.      6.     14.     14.     0.0     0.0     0.0     0.0     0.0     0.0     0.0     0.0     0.0     0.0     0.0     0.0     0.0     0.0     0.0     0.0     0.0     0.0     0.0     0.0     0.0     0.0     0.0     0.0     0.0     0.0     0.0     0.0     0.0     0.0
[...]
   15 203   127    0.02    0.05    0.04    0.06    36.6   0.003   0.037   0.053   0.060     0.4     0.2     0.7     0.0     549    0.00    0.55    0.00    0.92     0.0     0.0     0.0     0.0     0.0     0.0     0.0     0.0     0.0     0.0     20.     38.     11.     25.     27.     26.     29.     30.     54.     51.     0.0     0.0     0.0     0.0     0.0     0.0     0.0     0.0     0.1     0.1     0.0     0.0     0.0     0.0     0.0     0.0     0.0     0.0     0.0     0.0     0.1     0.2     0.0     0.1     0.1     0.0     0.0     0.0     0.1     0.1
   15 204   128    0.02    0.05    0.04    0.06    37.1   0.003   0.037   0.053   0.062     0.4     0.2     0.8     0.0     546    0.00    0.55    0.00    2.26     0.0     0.0     0.0     0.0     0.0     0.0     0.0     0.0     0.0     0.0     18.     36.     11.     25.     26.     26.     29.     30.     54.     51.     0.0     0.0     0.0     0.0     0.0     0.0     0.0     0.0     0.1     0.1     0.0     0.0     0.0     0.0     0.0     0.0     0.0     0.0     0.0     0.0     0.3     0.4     0.1     0.2     0.1     0.1     0.1     0.1     0.2     0.1
   15 205   129    0.02    0.05    0.04    0.06    37.6   0.003   0.038   0.053   0.064     0.4     0.2     0.8     0.0     539    0.00    0.54    0.00    1.52     0.0     0.0     0.0     0.0     0.0     0.0     0.0     0.0     0.0     0.0     21.     33.     10.     23.     25.     25.     28.     29.     54.     51.     0.0     0.0     0.0     0.0     0.0     0.0     0.0     0.0     0.1     0.1     0.0     0.0     0.0     0.0     0.0     0.0     0.0     0.0     0.0     0.0     0.2     0.2     0.1     0.1     0.1     0.1     0.1     0.1     0.1     0.1
   15 206   130    0.02    0.05    0.04    0.06    38.2   0.003   0.038   0.053   0.065     0.4     0.2     0.8     0.0     529    0.00    0.53    0.00    1.00     0.0     0.0     0.0     0.0     0.0     0.0     0.0     0.0     0.0     0.0     19.     30.      9.     22.     24.     24.     28.     29.     53.     51.     0.0     0.0     0.0     0.0     0.0     0.0     0.0     0.0     0.1     0.1     0.0     0.0     0.0     0.0     0.0     0.0     0.0     0.0     0.0     0.0     0.1     0.2     0.0     0.1     0.1     0.1     0.0     0.0     0.1     0.1
   15 207   131    0.02    0.05    0.04    0.06    38.7   0.003   0.039   0.053   0.066     0.4     0.1     0.8     0.0     498    0.00    0.50    0.00    0.80     0.0     0.0     0.0     0.0     0.0     0.0     0.0     0.0     0.0     0.0     17.     27.      8.     20.     21.     22.     26.     27.     51.     49.     0.0     0.0     0.0     0.0     0.0     0.0     0.0     0.0     0.1     0.0     0.0     0.0     0.0     0.0     0.0     0.0     0.0     0.0     0.0     0.0     0.1     0.1     0.0     0.1     0.0     0.0     0.0     0.0     0.1     0.1
   15 208   132    0.02    0.05    0.04    0.06    39.1   0.003   0.039   0.053   0.067     0.4     0.1     0.8     0.0     449    0.00    0.45    0.00    0.70     0.0     0.0     0.0     0.0     0.0     0.0     0.0     0.0     0.0     0.0     13.     22.      7.     17.     18.     19.     23.     24.     46.     45.     0.0     0.0     0.0     0.0     0.0     0.0     0.0     0.0     0.0     0.0     0.0     0.0     0.0     0.0     0.0     0.0     0.0     0.0     0.0     0.0     0.1     0.1     0.0     0.0     0.0     0.0     0.0     0.0     0.1     0.0
   15 209   133    0.02    0.05    0.04    0.06    39.5   0.003   0.040   0.053   0.067     0.3     0.1     0.7     0.0     420    0.00    0.42    0.00    0.67     0.0     0.0     0.0     0.0     0.0     0.0     0.0     0.0     0.0     0.0     21.     19.      6.     15.     16.     17.     21.     22.     42.     41.     0.0     0.0     0.0     0.0     0.0     0.0     0.0     0.0     0.0     0.0     0.0     0.0     0.0     0.0     0.0     0.0     0.0     0.0     0.0     0.0     0.1     0.1     0.0     0.0     0.0     0.0     0.0     0.0     0.0     0.0
   15 210   134    0.02    0.05    0.04    0.06    39.9   0.003   0.040   0.053   0.068     0.3     0.1     0.7     0.0     401    0.00    0.40    0.00    0.64     0.0     0.0     0.0     0.0     0.0     0.0     0.0     0.0     0.0     0.0     22.     17.      6.     14.     15.     16.     19.     21.     40.     39.     0.0     0.0     0.0     0.0     0.0     0.0     0.0     0.0     0.0     0.0     0.0     0.0     0.0     0.0     0.0     0.0     0.0     0.0     0.0     0.0     0.1     0.1     0.0     0.0     0.0     0.0     0.0     0.0     0.0     0.0
   15 211   135    0.02    0.05    0.04    0.06    40.3   0.003   0.041   0.053   0.068     0.3     0.1     0.7     0.0     368    0.00    0.37    0.00    0.58     0.0     0.0     0.0     0.0     0.0     0.0     0.0     0.0     0.0     0.0     20.     15.      5.     12.     13.     14.     18.     19.     36.     36.     0.0     0.0     0.0     0.0     0.0     0.0     0.0     0.0     0.0     0.0     0.0     0.0     0.0     0.0     0.0     0.0     0.0     0.0     0.0     0.0     0.1     0.1     0.0     0.0     0.0     0.0     0.0     0.0     0.0     0.0
   15 212   136    0.02    0.05    0.04    0.06    40.7   0.003   0.041   0.053   0.069     0.3     0.1     0.7     0.0     347    0.00    0.35    0.00    0.55     0.0     0.0     0.0     0.0     0.0     0.0     0.0     0.0     0.0     0.0     20.     14.      4.     11.     12.     13.     16.     17.     34.     34.     0.0     0.0     0.0     0.0     0.0     0.0     0.0     0.0     0.0     0.0     0.0     0.0     0.0     0.0     0.0     0.0     0.0     0.0     0.0     0.0     0.1     0.1     0.0     0.0     0.0     0.0     0.0     0.0     0.0     0.0
   15 213   137    0.02    0.05    0.04    0.06    41.0   0.003   0.041   0.053   0.070     0.3     0.1     0.7     0.0     343    0.00    0.34    0.00    0.55     0.0     0.0     0.0     0.0     0.0     0.0     0.0     0.0     0.0     0.0     19.     13.      4.     11.     12.     13.     16.     17.     34.     34.     0.0     0.0     0.0     0.0     0.0     0.0     0.0     0.0     0.0     0.0     0.0     0.0     0.0     0.0     0.0     0.0     0.0     0.0     0.0     0.0     0.1     0.1     0.0     0.0     0.0     0.0     0.0     0.0     0.0     0.0
   15 214   138    0.02    0.05    0.04    0.06    41.3   0.003   0.042   0.053   0.070     0.4     0.1     0.7     0.0     334    0.00    0.33    0.00    0.53     0.0     0.0     0.0     0.0     0.0     0.0     0.0     0.0     0.0     0.0     17.     12.      4.     11.     12.     13.     16.     17.     33.     33.     0.0     0.0     0.0     0.0     0.0     0.0     0.0     0.0     0.0     0.0     0.0     0.0     0.0     0.0     0.0     0.0     0.0     0.0     0.0     0.0     0.1     0.1     0.0     0.0     0.0     0.0     0.0     0.0     0.0     0.0
   15 215   139    0.02    0.05    0.05    0.06    41.7   0.003   0.042   0.053   0.071     0.4     0.1     0.7     0.0     335    0.00    0.34    0.00    0.53     0.0     0.0     0.0     0.0     0.0     0.0     0.0     0.0     0.0     0.0     16.     12.      4.     11.     12.     13.     16.     17.     33.     33.     0.0     0.0     0.0     0.0     0.0     0.0     0.0     0.0     0.0     0.0     0.0     0.0     0.0     0.0     0.0     0.0     0.0     0.0     0.0     0.0     0.1     0.1     0.0     0.0     0.0     0.0     0.0     0.0     0.0     0.0
   15 216   140    0.02    0.05    0.05    0.06    42.0   0.003   0.042   0.053   0.071     0.4     0.1     0.7     0.0     351    0.00    0.35    0.00    0.56     0.0     0.0     0.0     0.0     0.0     0.0     0.0     0.0     0.0     0.0     16.     13.      5.     11.     12.     13.     17.     18.     35.     35.     0.0     0.0     0.0     0.0     0.0     0.0     0.0     0.0     0.0     0.0     0.0     0.0     0.0     0.0     0.0     0.0     0.0     0.0     0.0     0.0     0.1     0.1     0.0     0.0     0.0     0.0     0.0     0.0     0.0     0.0
   15 217   141    0.03    0.05    0.05    0.06    42.4   0.003   0.043   0.053   0.072     0.4     0.1     0.7     0.0     378    0.00    0.38    0.00    0.60     0.0     0.0     0.0     0.0     0.0     0.0     0.0     0.0     0.0     0.0     17.     14.      5.     12.     13.     14.     18.     19.     38.     38.     0.0     0.0     0.0     0.0     0.0     0.0     0.0     0.0     0.0     0.0     0.0     0.0     0.0     0.0     0.0     0.0     0.0     0.0     0.0     0.0     0.1     0.1     0.0     0.0     0.0     0.0     0.0     0.0     0.0     0.0
   15 218   142    0.03    0.05    0.05    0.06    42.8   0.003   0.043   0.053   0.072     0.4     0.1     0.7     0.0     398    0.00    0.40    0.00    0.63     0.0     0.0     0.0     0.0     0.0     0.0     0.0     0.0     0.0     0.0     17.     14.      5.     13.     14.     15.     19.     21.     41.     40.     0.0     0.0     0.0     0.0     0.0     0.0     0.0     0.0     0.0     0.0     0.0     0.0     0.0     0.0     0.0     0.0     0.0     0.0     0.0     0.0     0.1     0.1     0.0     0.0     0.0     0.0     0.0     0.0     0.0     0.0
   15 219   143    0.03    0.05    0.05    0.06    43.2   0.003   0.044   0.053   0.073     0.4     0.1     0.7     0.0     426    0.00    0.43    0.00    0.67     0.0     0.0     0.0     0.0     0.0     0.0     0.0     0.0     0.0     0.0     17.     15.      6.     14.     15.     16.     21.     22.     44.     44.     0.0     0.0     0.0     0.0     0.0     0.0     0.0     0.0     0.0     0.0     0.0     0.0     0.0     0.0     0.0     0.0     0.0     0.0     0.0     0.0     0.1     0.1     0.0     0.0     0.0     0.0     0.0     0.0     0.0     0.0
   15 220   144    0.03    0.05    0.05    0.06    43.7   0.003   0.044   0.053   0.074     0.4     0.1     0.7     0.0     452    0.00    0.45    0.00    0.71     0.0     0.0     0.0     0.0     0.0     0.0     0.0     0.0     0.0     0.0     17.     16.      6.     15.     16.     17.     22.     24.     47.     47.     0.0     0.0     0.0     0.0     0.0     0.0     0.0     0.0     0.0     0.0     0.0     0.0     0.0     0.0     0.0     0.0     0.0     0.0     0.0     0.0     0.1     0.1     0.0     0.0     0.0     0.0     0.0     0.0     0.1     0.0
   15 221   145    0.03    0.05    0.05    0.06    44.2   0.003   0.044   0.053   0.074     0.3     0.1     0.6     0.0     479    0.00    0.48    0.00    0.76     0.0     0.0     0.0     0.0     0.0     0.0     0.0     0.0     0.0     0.0     21.     16.      7.     15.     16.     17.     23.     25.     50.     50.     0.0     0.0     0.0     0.0     0.0     0.0     0.0     0.0     0.1     0.0     0.0     0.0     0.0     0.0     0.0     0.0     0.0     0.0     0.0     0.0     0.1     0.1     0.0     0.0     0.0     0.0     0.0     0.0     0.1     0.1
   15 222   146    0.03    0.05    0.05    0.06    44.6   0.003   0.045   0.053   0.075     0.4     0.1     0.6     0.0     491    0.00    0.49    0.00    0.77     0.0     0.0     0.0     0.0     0.0     0.0     0.0     0.0     0.0     0.0     20.     16.      7.     15.     16.     17.     24.     26.     52.     51.     0.0     0.0     0.0     0.0     0.0     0.0     0.0     0.0     0.1     0.1     0.0     0.0     0.0     0.0     0.0     0.0     0.0     0.0     0.0     0.0     0.1     0.1     0.0     0.0     0.0     0.0     0.0     0.0     0.1     0.1
   15 223   147    0.03    0.05    0.05    0.06    45.1   0.003   0.045   0.053   0.076     0.4     0.1     0.6     0.0     501    0.00    0.50    0.00    0.78     0.0     0.0     0.0     0.0     0.0     0.0     0.0     0.0     0.0     0.0     19.     17.      7.     15.     16.     17.     24.     26.     53.     53.     0.0     0.0     0.0     0.0     0.0     0.0     0.0     0.0     0.1     0.1     0.0     0.0     0.0     0.0     0.0     0.0     0.0     0.0     0.0     0.0     0.1     0.1     0.0     0.0     0.0     0.0     0.0     0.0     0.1     0.1
   15 224   148    0.03    0.05    0.05    0.06    45.6   0.003   0.046   0.053   0.077     0.4     0.1     0.6     0.0     500    0.00    0.50    0.00    0.77     0.0     0.0     0.0     0.0     0.0     0.0     0.0     0.0     0.0     0.0     17.     16.      7.     15.     16.     16.     24.     26.     53.     53.     0.0     0.0     0.0     0.0     0.0     0.0     0.0     0.0     0.1     0.1     0.0     0.0     0.0     0.0     0.0     0.0     0.0     0.0     0.0     0.0     0.1     0.1     0.0     0.0     0.0     0.0     0.0     0.0     0.1     0.1
   15 225   149    0.03    0.05    0.05    0.06    46.1   0.003   0.046   0.053   0.078     0.4     0.1     0.6     0.0     497    0.00    0.50    0.00    0.75     0.0     0.0     0.0     0.0     0.0     0.0     0.0     0.0     0.0     0.0     15.     16.      7.     15.     15.     16.     23.     26.     54.     54.     0.0     0.0     0.0     0.0     0.0     0.0     0.0     0.0     0.1     0.1     0.0     0.0     0.0     0.0     0.0     0.0     0.0     0.0     0.0     0.0     0.1     0.1     0.0     0.0     0.0     0.0     0.0     0.0     0.1     0.1
   15 226   150    0.03    0.05    0.05    0.06    46.6   0.003   0.047   0.053   0.080     0.4     0.0     0.7     0.0     493    0.00    0.49    0.00    2.75     0.0     0.0     0.0     0.0     0.0     0.0     0.0     0.0     0.0     0.0     14.     15.      7.     14.     15.     15.     23.     26.     54.     54.     0.0     0.0     0.0     0.0     0.0     0.0     0.0     0.0     0.1     0.1     0.0     0.0     0.0     0.0     0.0     0.0     0.0     0.0     0.0     0.0     0.3     0.3     0.1     0.2     0.1     0.1     0.1     0.1     0.2     0.2
   15 227   151    0.03    0.05    0.05    0.06    47.1   0.003   0.047   0.053   0.083     0.3     0.0     0.7     0.0     510    0.00    0.51    0.00    2.39     0.0     0.0     0.0     0.0     0.0     0.0     0.0     0.0     0.0     0.0     28.     15.      7.     14.     15.     15.     23.     26.     54.     55.     0.0     0.0     0.0     0.0     0.0     0.0     0.0     0.0     0.1     0.1     0.0     0.0     0.0     0.0     0.0     0.0     0.0     0.0     0.0     0.0     0.4     0.2     0.1     0.1     0.1     0.1     0.1     0.1     0.2     0.2
   15 228   152    0.03    0.05    0.05    0.06    47.6   0.003   0.048   0.053   0.085     0.3     0.0     0.7     0.0     500    0.00    0.50    0.00    1.95     0.0     0.0     0.0     0.0     0.0     0.0     0.0     0.0     0.0     0.0     32.     14.      6.     13.     14.     15.     22.     25.     53.     53.     0.0     0.0     0.0     0.0     0.0     0.0     0.0     0.0     0.1     0.1     0.0     0.0     0.0     0.0     0.0     0.0     0.0     0.0     0.0     0.0     0.4     0.2     0.1     0.1     0.1     0.1     0.1     0.1     0.1     0.1
   15 229   153    0.03    0.05    0.05    0.06    48.1   0.003   0.048   0.053   0.086     0.3     0.0     0.7     0.0     466    0.00    0.47    0.00    1.43     0.0     0.0     0.0     0.0     0.0     0.0     0.0     0.0     0.0     0.0     31.     13.      6.     12.     13.     13.     20.     23.     49.     49.     0.0     0.0     0.0     0.0     0.0     0.0     0.0     0.0     0.0     0.0     0.0     0.0     0.0     0.0     0.0     0.0     0.0     0.0     0.0     0.0     0.3     0.1     0.0     0.1     0.1     0.1     0.1     0.1     0.1     0.1
   15 230   154    0.03    0.05    0.05    0.06    48.5   0.003   0.049   0.053   0.087     0.2     0.0     0.5     0.0     427    0.00    0.43    0.00    0.92     0.0     0.0     0.0     0.0     0.0     0.0     0.0     0.0     0.0     0.0     31.     13.      5.     10.     11.     12.     18.     20.     44.     45.     0.0     0.0     0.0     0.0     0.0     0.0     0.0     0.0     0.0     0.0     0.0     0.0     0.0     0.0     0.0     0.0     0.0     0.0     0.0     0.0     0.1     0.1     0.0     0.1     0.0     0.0     0.0     0.0     0.1     0.1
   15 231   155    0.03    0.05    0.06    0.06    48.9   0.003   0.049   0.053   0.088     0.4     0.0     0.8     0.0     410    0.00    0.41    0.00    0.88     0.0     0.0     0.0     0.0     0.0     0.0     0.0     0.0     0.0     0.0     40.     15.      4.      9.     10.     11.     16.     19.     40.     41.     0.0     0.0     0.0     0.0     0.0     0.0     0.0     0.0     0.0     0.0     0.0     0.0     0.0     0.0     0.0     0.0     0.0     0.0     0.0     0.0     0.2     0.1     0.0     0.0     0.0     0.0     0.0     0.0     0.1     0.1
   15 232   156    0.03    0.05    0.06    0.06    49.3   0.003   0.050   0.053   0.089     0.4     0.0     0.8     0.0     379    0.00    0.38    0.00    0.67     0.0     0.0     0.0     0.0     0.0     0.0     0.0     0.0     0.0     0.0     39.     15.      4.      8.      9.      9.     15.     17.     37.     38.     0.0     0.0     0.0     0.0     0.0     0.0     0.0     0.0     0.0     0.0     0.0     0.0     0.0     0.0     0.0     0.0     0.0     0.0     0.0     0.0     0.2     0.1     0.0     0.0     0.0     0.0     0.0     0.0     0.0     0.0
   15 233   157    0.03    0.05    0.06    0.06    49.7   0.003   0.050   0.053   0.089     0.4     0.0     0.8     0.0     364    0.00    0.36    0.00    0.60     0.0     0.0     0.0     0.0     0.0     0.0     0.0     0.0     0.0     0.0     38.     15.      4.      8.      8.      9.     14.     16.     35.     36.     0.0     0.0     0.0     0.0     0.0     0.0     0.0     0.0     0.0     0.0     0.0     0.0     0.0     0.0     0.0     0.0     0.0     0.0     0.0     0.0     0.2     0.1     0.0     0.0     0.0     0.0     0.0     0.0     0.0     0.0
   15 234   158    0.03    0.05    0.06    0.06    50.1   0.003   0.050   0.053   0.090     0.4     0.0     0.8     0.0     359    0.00    0.36    0.00    0.60     0.0     0.0     0.0     0.0     0.0     0.0     0.0     0.0     0.0     0.0     38.     16.      4.      7.      8.      9.     14.     16.     34.     35.     0.0     0.0     0.0     0.0     0.0     0.0     0.0     0.0     0.0     0.0     0.0     0.0     0.0     0.0     0.0     0.0     0.0     0.0     0.0     0.0     0.2     0.1     0.0     0.0     0.0     0.0     0.0     0.0     0.0     0.0
   15 235   159    0.03    0.05    0.06    0.06    50.4   0.003   0.051   0.053   0.090     0.4     0.0     0.8     0.0     368    0.00    0.37    0.00    0.63     0.0     0.0     0.0     0.0     0.0     0.0     0.0     0.0     0.0     0.0     39.     17.      4.      8.      8.      9.     14.     16.     35.     36.     0.0     0.0     0.0     0.0     0.0     0.0     0.0     0.0     0.0     0.0     0.0     0.0     0.0     0.0     0.0     0.0     0.0     0.0     0.0     0.0     0.2     0.1     0.0     0.0     0.0     0.0     0.0     0.0     0.0     0.0
   15 236   160    0.03    0.05    0.06    0.06    50.8   0.003   0.051   0.053   0.091     0.4     0.0     0.8     0.0     380    0.00    0.38    0.00    0.64     0.0     0.0     0.0     0.0     0.0     0.0     0.0     0.0     0.0     0.0     40.     18.      4.      8.      9.      9.     14.     17.     36.     37.     0.0     0.0     0.0     0.0     0.0     0.0     0.0     0.0     0.0     0.0     0.0     0.0     0.0     0.0     0.0     0.0     0.0     0.0     0.0     0.0     0.2     0.1     0.0     0.0     0.0     0.0     0.0     0.0     0.0     0.0
   15 237   161    0.03    0.05    0.06    0.06    51.2   0.003   0.051   0.053   0.091     0.2     0.0     0.3     0.0     384    0.00    0.38    0.00    0.47     0.0     0.0     0.0     0.0     0.0     0.0     0.0     0.0     0.0     0.0     28.     19.      5.      8.      9.     10.     15.     18.     38.     39.     0.0     0.0     0.0     0.0     0.0     0.0     0.0     0.0     0.0     0.0     0.0     0.0     0.0     0.0     0.0     0.0     0.0     0.0     0.0     0.0     0.0     0.0     0.0     0.0     0.0     0.0     0.0     0.0     0.0     0.0
