*GROWTH ASPECTS OUTPUT FILE

*DSSAT Cropping System Model Ver. 4.8.5.000 -release  FEB 02, 2026 11:46:55

*RUN   1        : 1                         WHAPS048 TUDU1501    1
 MODEL          : WHAPS048 - Wheat
 EXPERIMENT     : TUDU1501 WH
 DATA PATH      :
 TREATMENT  1   : 1                         WHAPS048
  
!                                                                                                                                                                                                                                             Root Dens. (cm/cm3) by soil depth (cm):
!                                                                                                                                                                                                                                             0-5    5-15   15-20   20-30   30-40   40-50   50-60   60-70   70-90  90-210
@YEAR DOY   DAS   DAP    DCCD  GSTD   LAID   LWAD   SWAD   GWAD   RWAD   VWAD   CWAD   G#AD   G#AD2  GWGD   HIAD   SHAD   WSPD   WSGD   SLFT   NSTD   EWSD  PST1A  PST2A   KSTD   LN%D   TPSM   HIPD   PWDD   PWTD     SLAD   CHTD   CWID   RDPD    RL1D    RL2D    RL3D    RL4D    RL5D    RL6D    RL7D    RL8D    RL9D   RL10D   CDAD   LDAD   SDAD   SNW0C   SNW1C    DTTD   SUMDTT
   15 077     1     0   0.000     8  0.000      0      0      0      0      0      0      0      0    0.0  0.000      0   0.00   0.00   0.00   0.00   0.00   0.00   0.00   1.00   0.00    0.0   0.00      0      0      0.0   0.00   0.00 0.0250   0.000   0.000   0.000   0.000   0.000   0.000   0.000   0.000   0.000   0.000      0      0      0       0       0   7.000    0.000
   15 078     2     1   0.000     8  0.000      0      0      0      0      0      0      0      0    0.0  0.000      0   0.00   0.00   0.00   0.00   0.00   0.00   0.00   1.00   0.00    0.0   0.00      0      0      0.0   0.00   0.00 0.0250   0.000   0.000   0.000   0.000   0.000   0.000   0.000   0.000   0.000   0.000      0      0      0       0       0   7.097    7.097
   15 079     3     2   1.022     9  0.000      0      0      0      0      0      0      0      0    0.0  0.000      0   0.00   0.00   0.00   0.00   0.00   0.00   0.00   1.00   0.00    0.0   0.00      0      0      0.0   0.00   0.00 0.0250   0.000   0.000   0.000   0.000   0.000   0.000   0.000   0.000   0.000   0.000      0      0      0       0       0   6.695    6.695
   15 080     4     3   2.060     9  0.000      0      0      0      0      0      0      0      0    0.0  0.000      0   0.00   0.00   0.00   0.00   0.00   0.00   0.00   1.00   0.00    0.0   0.00      0      0      0.0   0.00   0.00 0.0317   0.000   0.000   0.000   0.000   0.000   0.000   0.000   0.000   0.000   0.000      0      0      0       0       0   6.798   13.493
   15 081     5     4   2.594     9  0.000      0      0      0      0      0      0      0      0    0.0  0.000      0   0.00   0.00   0.00   0.00   0.00   0.00   0.00   1.00   0.00    0.0   0.00      0      0      0.0   0.00   0.00 0.0385   0.000   0.000   0.000   0.000   0.000   0.000   0.000   0.000   0.000   0.000      0      0      0       0       0   3.500   16.993
   15 082     6     5   3.052     9  0.000      0      0      0      0      0      0      0      0    0.0  0.000      0   0.00   0.00   0.00   0.00   0.00   0.00   0.00   1.00   0.00    0.0   0.00      0      0      0.0   0.00   0.00 0.0420   0.000   0.000   0.000   0.000   0.000   0.000   0.000   0.000   0.000   0.000      0      0      0       0       0   3.000   19.993
   15 083     7     6   4.227     9  0.000      0      0      0      0      0      0      0      0    0.0  0.000      0   0.00   0.00   0.00   0.00   0.00   0.00   0.00   1.00   0.00    0.0   0.00      0      0      0.0   0.00   0.00 0.0450   0.000   0.000   0.000   0.000   0.000   0.000   0.000   0.000   0.000   0.000      0      0      0       0       0   7.695   27.688
   15 084     8     7   5.525     9  0.000      0      0      0      0      0      0      0      0    0.0  0.000      0   0.00   0.00   0.00   0.00   0.00   0.00   0.00   1.00   0.00    0.0   0.00      0      0      0.0   0.00   0.00 0.0500   0.000   0.000   0.000   0.000   0.000   0.000   0.000   0.000   0.000   0.000      0      0      0       0       0   8.500   36.188
   15 085     9     8   6.365     9  0.000      0      0      0      0      0      0      0      0    0.0  0.000      0   0.00   0.00   0.00   0.00   0.00   0.00   0.00   1.00   0.00    0.0   0.00      0      0      0.0   0.00   0.00 0.0500   0.000   0.000   0.000   0.000   0.000   0.000   0.000   0.000   0.000   0.000      0      0      0       0       0   5.500   41.688
   15 086    10     9   7.281     9  0.000      0      0      0      0      0      0      0      0    0.0  0.000      0   0.00   0.00   0.00   0.00   0.00   0.00   0.00   1.00   0.00    0.0   0.00      0      0      0.0   0.00   0.00 0.0500   0.000   0.000   0.000   0.000   0.000   0.000   0.000   0.000   0.000   0.000      0      0      0       0       0   6.000   47.688
   15 087    11    10   8.197     9  0.000      0      0      0      0      0      0      0      0    0.0  0.000      0   0.00   0.00   0.00   0.00   0.00   0.00   0.00   1.00   0.00    0.0   0.00      0      0      0.0   0.00   0.00 0.0500   0.000   0.000   0.000   0.000   0.000   0.000   0.000   0.000   0.000   0.000      0      0      0       0       0   6.000   53.688
   15 088    12    11   9.571     9  0.000      0      0      0      0      0      0      0      0    0.0  0.000      0   0.00   0.00   0.00   0.00   0.00   0.00   0.00   1.00   0.00    0.0   0.00      0      0      0.0   0.00   0.00 0.0500   0.000   0.000   0.000   0.000   0.000   0.000   0.000   0.000   0.000   0.000      0      0      0       0       0   9.000   62.688
   15 089    13    12  10.159     1  0.018     10      0      0     24     11     11      0      0    0.0  0.000      1   0.00   0.00   1.00   0.00   0.00   0.00   0.00   1.00   5.83  400.0   0.00      0      1    397.9   0.00   0.00 0.0614   0.042   0.005   0.000   0.000   0.000   0.000   0.000   0.000   0.000   0.000      0      0      0       0       0   6.000    3.188
   15 090    14    13  10.415     1  0.021     12      0      0     25     13     13      0      0    0.0  0.000      1   0.00   0.00   1.00   0.00   0.00   0.00   0.00   1.00   5.39  400.0   0.00      0      1    394.7   0.00   0.00 0.0747   0.042   0.005   0.000   0.000   0.000   0.000   0.000   0.000   0.000   0.000      0      0      0       0       0   7.000    8.294
   15 091    15    14  10.525     1  0.022     12      0      0     25     14     14      0      0    0.0  0.000      2   0.00   0.00   1.00   0.00   0.00   0.00   0.00   1.00   6.09  400.0   0.00      0      2    393.3   0.00   0.00 0.0804   0.041   0.005   0.000   0.000   0.000   0.000   0.000   0.000   0.000   0.000      0      0      0       0       0   3.000   10.502
   15 092    16    15  10.637     1  0.024     13      0      0     25     15     15      0      0    0.0  0.000      2   0.00   0.00   1.00   0.00   0.00   0.00   0.00   1.00   6.06  400.0   0.00      0      2    392.0   0.00   0.00 0.0861   0.041   0.005   0.000   0.000   0.000   0.000   0.000   0.000   0.000   0.000      0      0      0       0       0   3.000   12.731
   15 093    17    16  10.827     1  0.028     14      0      0     26     17     17      0      0    0.0  0.000      3   0.00   0.00   1.00   0.00   0.00   0.00   0.00   1.00   5.74  400.0   0.00      0      3    389.7   0.00   0.00 0.0958   0.041   0.005   0.000   0.000   0.000   0.000   0.000   0.000   0.000   0.000      0      0      0       0       0   5.097   16.550
   15 094    18    17  10.941     1  0.029     14      0      0     26     18     18      0      0    0.0  0.000      3   0.00   0.00   1.00   0.00   0.00   0.00   0.00   1.00   6.00  400.0   0.00      0      3    388.3   0.00   0.00 0.1014   0.040   0.005   0.000   0.000   0.000   0.000   0.000   0.000   0.000   0.000      0      0      0       0       0   3.000   18.821
   15 095    19    18  11.063     1  0.031     15      0      0     27     19     19      0      0    0.0  0.000      4   0.00   0.00   1.00   0.00   0.00   0.00   0.00   1.00   6.04  400.0   0.00      0      4    386.9   0.00   0.00 0.1075   0.040   0.005   0.000   0.000   0.000   0.000   0.000   0.000   0.000   0.000      0      0      0       0       0   3.195   21.259
   15 096    20    19  11.186     1  0.033     15      0      0     28     20     20      0      0    0.0  0.000      4   0.00   0.00   1.00   0.00   0.00   0.00   0.00   1.00   6.02  400.0   0.00      0      4    385.5   0.00   0.00 0.1136   0.040   0.005   0.000   0.000   0.000   0.000   0.000   0.000   0.000   0.000      0      0      0       0       0   3.195   23.715
   15 097    21    20  11.348     1  0.036     16      0      0     29     22     22      0      0    0.0  0.000      5   0.00   0.00   1.00   0.00   0.00   0.00   0.00   1.00   5.82  400.0   0.00      0      5    383.6   0.00   0.00 0.1215   0.039   0.005   0.000   0.000   0.000   0.000   0.000   0.000   0.000   0.000      0      0      0       0       0   4.195   26.965
   15 098    22    21  11.602     1  0.044     19      0      0     31     27     27      0      0    0.0  0.000      7   0.00   0.00   1.00   0.00   0.00   0.00   0.00   1.00   5.13  400.0   0.00      0      7    380.8   0.00   0.00 0.1339   0.039   0.005   0.000   0.000   0.000   0.000   0.000   0.000   0.000   0.000      0      0      0       0       0   6.500   32.037
   15 099    23    22  11.994     1  0.056     27      0      0     33     38     38      0      0    0.0  0.000     10   0.00   0.00   1.00   0.00   0.00   0.00   0.00   1.00   4.38  400.0   0.00      0     10    376.5   0.00   0.00 0.1529   0.039   0.005   0.000   0.000   0.000   0.000   0.000   0.000   0.000   0.000      0      0      0       0       0  10.000   39.882
   15 100    24    23  12.428     1  0.068     32      0      0     35     46     46      0      0    0.0  0.000     14   0.00   0.00   1.00   0.47   0.00   0.00   0.00   1.00   5.09  400.0   0.00      0     14    372.0   0.00   0.00 0.1722   0.039   0.005   0.000   0.000   0.000   0.000   0.000   0.000   0.000   0.000      0      0      0       0       0  11.000   48.554
   15 101    25    24  12.883     1  0.081     40      0      0     38     58     58      0      0    0.0  0.000     17   0.00   0.00   1.00   0.29   0.00   0.00   0.00   1.00   4.81  400.0   0.00      0     17    367.4   0.00   0.00 0.1925   0.039   0.005   0.000   0.000   0.000   0.000   0.000   0.000   0.000   0.000      0      0      0       0       0  11.500   57.659
   15 102    26    25  13.340     1  0.099     48      0      0     42     71     71      0      0    0.0  0.000     22   0.00   0.00   1.00   0.33   0.00   0.00   0.00   1.00   4.92  400.0   0.00      0     22    363.1   0.00   0.00 0.2127   0.039   0.005   0.000   0.000   0.000   0.000   0.000   0.000   0.000   0.000      0      0      0       0       0  11.500   66.804
   15 103    27    26  13.799     1  0.119     58      0      0     46     86     86      0      0    0.0  0.000     28   0.00   0.00   1.00   0.30   0.00   0.00   0.00   1.00   4.92  400.0   0.00      0     28    358.9   0.00   0.00 0.2304   0.039   0.005   0.000   0.000   0.000   0.000   0.000   0.000   0.000   0.000      0      0      0       0       0  11.500   75.989
   15 104    28    27  14.261     1  0.149     68      0      0     53    104    104      0      0    0.0  0.000     36   0.00   0.00   1.00   0.29   0.00   0.00   0.00   1.00   4.52  400.0   0.00      0     36    354.9   0.00   0.00 0.2481   0.039   0.005   0.001   0.000   0.000   0.000   0.000   0.000   0.000   0.000      0      0      0       0       0  11.500   85.213
   15 105    29    28  14.824     1  0.185     79      0      0     62    126    126      0      0    0.0  0.000     46   0.00   0.00   1.00   0.41   0.00   0.00   0.00   1.00   4.08  400.0   0.00      0     46    350.3   0.00   0.00 0.2697   0.039   0.006   0.001   0.000   0.000   0.000   0.000   0.000   0.000   0.000      0      0      0       0       0  14.000   96.473
   15 106    30    29  15.428     1  0.210     89      0      0     68    143    143      0      0    0.0  0.000     54   0.00   0.00   1.00   0.55   0.00   0.00   0.00   1.00   3.81  400.0   0.00      0     54    345.5   0.00   0.00 0.2928   0.038   0.006   0.001   0.001   0.000   0.000   0.000   0.000   0.000   0.000      0      0      0       0       0  15.000  108.561
   15 107    31    30  15.853     1  0.225     96      0      0     71    154    154      0      0    0.0  0.000     58   0.00   0.00   1.00   0.61   0.00   0.00   0.00   1.00   5.54  400.0   0.00      0     58    342.4   0.00   0.00 0.3090   0.038   0.006   0.002   0.001   0.000   0.000   0.000   0.000   0.000   0.000      0      0      0       0       0  10.500  117.064
   15 108    32    31  16.057     1  0.240    100      0      0     79    163    163      0      0    0.0  0.000     62   0.00   0.00   1.00   0.00   0.00   0.00   0.00   1.00   5.67  400.0   0.00      0     62    340.9   0.00   0.00 0.3159   0.038   0.006   0.002   0.001   0.000   0.000   0.000   0.000   0.000   0.000      0      0      0       0       0   5.000  121.144
   15 109    33    32  16.304     1  0.261    107      0      0     91    176    176      0      0    0.0  0.000     69   0.00   0.00   1.00   0.00   0.00   0.00   0.00   1.00   5.62  400.0   0.00      0     69    339.2   0.00   0.00 0.3243   0.038   0.006   0.002   0.001   0.000   0.000   0.000   0.000   0.000   0.000      0      0      0       0       0   6.000  126.075
   15 110    34    33  16.635     1  0.296    119      0      0    111    199    199      0      0    0.0  0.000     79   0.00   0.00   1.00   0.00   0.00   0.00   0.00   1.00   5.53  400.0   0.00      0     79    337.0   0.00   0.00 0.3354   0.039   0.007   0.002   0.001   0.000   0.000   0.000   0.000   0.000   0.000      0      0      0       0       0   8.000  132.693
   15 111    35    34  17.050     1  0.350    137      0      0    141    232    232      0      0    0.0  0.000     95   0.00   0.00   1.00   0.00   0.00   0.00   0.00   1.00   5.44  400.0   0.00      0     95    334.2   0.00   0.00 0.3493   0.040   0.007   0.003   0.002   0.000   0.000   0.000   0.000   0.000   0.000      0      0      0       0       0  10.000  141.007
   15 112    36    35  17.489     1  0.408    156      0      0    175    269    269      0      0    0.0  0.000    113   0.00   0.00   1.00   0.00   0.00   0.00   0.00   1.00   5.38  400.0   0.00      0    113    331.5   0.00   0.00 0.3640   0.041   0.009   0.004   0.002   0.001   0.000   0.000   0.000   0.000   0.000      0      0      0       0       0  10.500  149.780
   15 113    37    36  17.741     1  0.431    164      0      0    188    284    284      0      0    0.0  0.000    120   0.00   0.00   1.00   0.00   0.00   0.00   0.00   1.00   5.42  400.0   0.00      0    120    329.9   0.00   0.00 0.3723   0.043   0.010   0.004   0.003   0.001   0.000   0.000   0.000   0.000   0.000      0      0      0       0       0   6.000  154.827
   15 114    38    37  18.122     1  0.480    181      0      0    215    315    315      0      0    0.0  0.000    135   0.00   0.00   1.00   0.00   0.00   0.00   0.00   1.00   5.32  400.0   0.00      0    135    327.7   0.00   0.00 0.3849   0.044   0.010   0.005   0.003   0.001   0.000   0.000   0.000   0.000   0.000      0      0      0       0       0   9.000  162.442
   15 115    39    38  18.590     1  0.546    203      0      0    235    358    358      0      0    0.0  0.000    155   0.00   0.00   1.00   0.00   0.00   0.00   0.00   1.00   5.23  400.0   0.00      0    155    325.1   0.00   0.00 0.4002   0.045   0.011   0.005   0.003   0.001   0.000   0.000   0.000   0.000   0.000      0      0      0       0       0  11.000  171.791
   15 116    40    39  19.228     1  0.639    235      0      0    269    419    419      0      0    0.0  0.000    184   0.00   0.00   1.00   0.00   0.00   0.00   0.00   1.00   4.95  400.0   0.00      0    184    321.7   0.00   0.00 0.4189   0.046   0.011   0.006   0.004   0.002   0.000   0.000   0.000   0.000   0.000      0      0      0       0       0  15.000  184.562
   15 117    41    40  19.826     1  0.724    265      0      0    320    476    476      0      0    0.0  0.000    211   0.00   0.00   1.00   0.06   0.00   0.00   0.00   1.00   5.09  400.0   0.00      0    211    318.7   0.00   0.00 0.4364   0.049   0.012   0.006   0.004   0.002   0.000   0.000   0.000   0.000   0.000      0      0      0       0       0  14.000  196.512
   15 118    42    41  20.169     1  0.769    281      0      0    345    506    506      0      0    0.0  0.000    225   0.00   0.00   1.00   0.00   0.00   0.00   0.00   1.00   5.12  400.0   0.00      0    225    317.0   0.00   0.00 0.4463   0.051   0.014   0.007   0.005   0.003   0.001   0.000   0.000   0.000   0.000      0      0      0       0       0   8.000  203.383
   15 119    43    42  20.450     1  0.801    292      0      0    362    527    527      0      0    0.0  0.000    235   0.00   0.00   1.00   0.00   0.00   0.00   0.00   1.00   5.09  400.0   0.00      0    235    315.7   0.00   0.00 0.4544   0.053   0.014   0.008   0.005   0.003   0.001   0.000   0.000   0.000   0.000      0      0      0       0       0   6.500  209.003
   15 120    44    43  20.885     1  0.869    314      0      0    402    571    571      0      0    0.0  0.000    257   0.00   0.00   1.00   0.00   0.00   0.00   0.00   1.00   5.06  400.0   0.00      0    257    313.8   0.00   0.00 0.4669   0.053   0.015   0.008   0.005   0.003   0.001   0.000   0.000   0.000   0.000      0      0      0       0       0  10.000  217.692
   15 121    45    44  21.234     1  0.917    329      0      0    428    601    601      0      0    0.0  0.000    272   0.00   0.00   1.00   0.00   0.00   0.00   0.00   1.00   5.06  400.0   0.00      0    272    312.3   0.00   0.00 0.4769   0.054   0.016   0.009   0.006   0.004   0.001   0.000   0.000   0.000   0.000      0      0      0       0       0   8.000  224.686
   15 122    46    45  21.674     1  0.988    352      0      0    469    647    647      0      0    0.0  0.000    295   0.00   0.00   1.00   0.00   0.00   0.00   0.00   1.00   4.98  400.0   0.00      0    295    310.5   0.00   0.00 0.4894   0.054   0.017   0.010   0.007   0.005   0.002   0.000   0.000   0.000   0.000      0      0      0       0       0  10.000  233.470
   15 123    47    46  22.246     1  1.082    383      0      0    495    708    708      0      0    0.0  0.000    325   0.00   0.00   1.00   0.00   0.00   0.00   0.00   1.00   4.74  400.0   0.00      0    325    308.2   0.00   0.00 0.5056   0.054   0.017   0.012   0.008   0.005   0.003   0.000   0.000   0.000   0.000      0      0      0       0       0  13.000  244.925
   15 124    48    47  22.996     1  1.206    423      0      0    553    789    789      0      0    0.0  0.000    366   0.00   0.00   1.00   0.03   0.00   0.00   0.00   1.00   4.50  400.0   0.00      0    366    305.4   0.00   0.00 0.5243   0.054   0.018   0.012   0.008   0.006   0.003   0.000   0.000   0.000   0.000      0      0      0       0       0  17.000  259.914
   15 125    49    48  23.811     1  1.336    466      0      0    587    875    875      0      0    0.0  0.000    409   0.00   0.00   1.00   0.10   0.00   0.00   0.00   1.00   4.27  400.0   0.00      0    409    302.7   0.00   0.00 0.5446   0.054   0.018   0.014   0.010   0.007   0.005   0.001   0.000   0.000   0.000      0      0      0       0       0  18.500  276.224
   15 126    50    49  24.298     1  1.407    490      0      0    629    923    923      0      0    0.0  0.000    432   0.00   0.00   1.00   0.18   0.00   0.00   0.00   1.00   4.14  400.0   0.00      0    432    301.1   0.00   0.00 0.5567   0.054   0.018   0.014   0.010   0.008   0.006   0.001   0.000   0.000   0.000      0      0      0       0       0  11.000  285.964
   15 127    51    50  24.875     1  1.490    517      0      0    678    978    978      0      0    0.0  0.000    460   0.00   0.00   1.00   0.21   0.00   0.00   0.00   1.00   4.04  400.0   0.00      0    460    299.4   0.00   0.00 0.5710   0.054   0.019   0.014   0.011   0.009   0.006   0.002   0.000   0.000   0.000      0      0      0       0       0  13.000  297.508
   15 128    52    51  25.543     1  1.585    549      0      0    735   1042   1042      0      0    0.0  0.000    492   0.00   0.00   1.00   0.24   0.00   0.00   0.00   1.00   3.92  400.0   0.00      0    492    297.5   0.00   0.00 0.5875   0.055   0.020   0.015   0.012   0.009   0.007   0.003   0.000   0.000   0.000      0      0      0       0       0  15.000  310.853
   15 129    53    52  26.145     1  1.670    578      0      0    785   1099   1099      0      0    0.0  0.000    521   0.00   0.00   1.00   0.27   0.00   0.00   0.00   1.00   3.84  400.0   0.00      0    521    295.9   0.00   0.00 0.6024   0.056   0.021   0.016   0.012   0.010   0.008   0.005   0.000   0.000   0.000      0      0      0       0       0  13.500  322.896
   15 130    54    53  26.726     1  1.750    605      0      0    832   1154   1154      0      0    0.0  0.000    548   0.00   0.00   1.00   0.28   0.00   0.00   0.00   1.00   3.76  400.0   0.00      0    548    294.4   0.00   0.00 0.6158   0.057   0.022   0.017   0.013   0.011   0.009   0.006   0.000   0.000   0.000      0      0      0       0       0  13.000  334.527
   15 131    55    54  27.310     1  1.831    633      0      0    879   1209   1209      0      0    0.0  0.000    576   0.00   0.00   1.00   0.30   0.00   0.00   0.00   1.00   3.68  400.0   0.00      0    576    293.0   0.00   0.00 0.6293   0.057   0.023   0.018   0.014   0.012   0.009   0.007   0.001   0.000   0.000      0      0      0       0       0  13.000  346.192
   15 132    56    55  28.094     1  1.940    670      0      0    945   1283   1283      0      0    0.0  0.000    613   0.00   0.00   1.00   0.31   0.00   0.00   0.00   1.00   3.54  400.0   0.00      0    613    291.3   0.00   0.00 0.6473   0.058   0.023   0.019   0.015   0.012   0.010   0.007   0.001   0.000   0.000      0      0      0       0       0  17.474  361.877
   15 133    57    56  28.880     1  2.045    706      0      0   1008   1356   1356      0      0    0.0  0.000    649   0.00   0.00   1.00   0.35   0.00   0.00   0.00   1.00   3.41  400.0   0.00      0    649    289.7   0.00   0.00 0.6654   0.059   0.025   0.020   0.016   0.013   0.011   0.008   0.003   0.000   0.000      0      0      0       0       0  17.500  377.590
   15 134    58    57  29.532     1  2.128    735      0      0   1055   1414   1414      0      0    0.0  0.000    678   0.00   0.00   1.00   0.39   0.00   0.00   0.00   1.00   3.33  400.0   0.00      0    678    288.4   0.00   0.00 0.6804   0.060   0.026   0.021   0.016   0.014   0.011   0.009   0.004   0.000   0.000      0      0      0       0       0  14.500  390.637
   15 135    59    58  30.021     2  2.224    768     12      0   1070   1492   1492      0      0    0.0  0.000    711   0.00   0.00   1.00   0.42   0.00   0.00   0.00   1.00   3.23 1360.8   0.00      0    711    288.4   0.00   0.00 0.6918   0.060   0.026   0.021   0.017   0.014   0.012   0.009   0.005   0.000   0.000      0      0      0       0       0  11.000    0.575
   15 136    60    59  30.454     2  2.411    833     38      0   1109   1647   1647      0      0    0.0  0.000    776   0.00   0.00   1.00   0.46   0.00   0.00   0.00   1.00   3.02 1379.0   0.00      0    776    288.4   0.00   0.00 0.7042   0.060   0.026   0.022   0.017   0.015   0.012   0.009   0.006   0.000   0.000      0      0      0       0       0  12.000   12.575
   15 137    61    60  30.942     2  2.532    875     57      0   1134   1750   1750      0      0    0.0  0.000    818   0.00   0.00   1.00   0.56   0.00   0.00   0.00   1.00   2.91 1376.9   0.00      0    818    288.4   0.00   0.00 0.7164   0.061   0.027   0.022   0.018   0.015   0.013   0.010   0.006   0.000   0.000      0      0      0       0       0  13.500   26.075
   15 138    62    61  31.483     2  2.675    925     82      0   1166   1874   1874      0      0    0.0  0.000    868   0.00   0.00   1.00   0.61   0.00   0.00   0.00   1.00   2.78 1366.9   0.00      0    868    288.4   0.00   0.00 0.7299   0.061   0.027   0.023   0.018   0.015   0.013   0.010   0.007   0.000   0.000      0      0      0       0       0  15.000   41.075
   15 139    63    62  31.971     2  2.740    947     94      0   1176   1932   1932      0      0    0.0  0.000    890   0.00   0.00   1.00   0.67   0.00   0.00   0.00   1.00   2.75 1353.7   0.00      0    890    288.4   0.00   0.00 0.7421   0.061   0.028   0.023   0.019   0.016   0.013   0.010   0.007   0.000   0.000      0      0      0       0       0  13.500   54.575
   15 140    64    63  32.260     2  2.784    963    103      0   1178   1971   1971      0      0    0.0  0.000    905   0.00   0.00   1.00   0.68   0.00   0.00   0.00   1.00   2.73 1345.1   0.00      0    905    288.4   0.00   0.00 0.7493   0.061   0.028   0.023   0.019   0.016   0.013   0.010   0.007   0.001   0.000      0      0      0       0       0   8.000   62.575
   15 141    65    64  32.603     2  2.844    984    117      0   1187   2027   2027      0      0    0.0  0.000    926   0.00   0.00   1.00   0.68   0.00   0.00   0.00   1.00   2.69 1334.2   0.00      0    926    288.4   0.00   0.00 0.7579   0.060   0.028   0.023   0.019   0.016   0.013   0.010   0.007   0.001   0.000      0      0      0       0       0   9.500   72.075
   15 142    66    65  32.946     2  2.934   1015    138      0   1206   2110   2110      0      0    0.0  0.000    958   0.00   0.00   1.00   0.69   0.00   0.00   0.00   1.00   2.63 1323.0   0.00      0    958    288.4   0.00   0.00 0.7664   0.060   0.028   0.023   0.019   0.016   0.013   0.011   0.007   0.001   0.000      0      0      0       0       0   9.500   81.575
   15 143    67    66  33.343     2  3.001   1038    154      0   1217   2173   2173      0      0    0.0  0.000    981   0.00   0.00   1.00   0.72   0.00   0.00   0.00   1.00   2.59 1309.5   0.00      0    981    288.4   0.00   0.00 0.7764   0.060   0.028   0.023   0.019   0.016   0.014   0.011   0.008   0.001   0.000      0      0      0       0       0  11.000   92.575
   15 144    68    67  33.758     2  3.055   1057    169      0   1224   2225   2225      0      0    0.0  0.000    999   0.00   0.00   1.00   0.73   0.00   0.00   0.00   1.00   2.57 1294.7   0.00      0    999    288.4   0.00   0.00 0.7867   0.060   0.028   0.024   0.019   0.016   0.014   0.011   0.008   0.001   0.000      0      0      0       0       0  11.500  104.075
   15 145    69    68  34.264     2  3.119   1079    188      0   1236   2288   2288      0      0    0.0  0.000   1021   0.00   0.00   1.00   0.73   0.00   0.00   0.00   1.00   2.53 1275.8   0.00      0   1021    288.4   0.00   0.00 0.7994   0.060   0.028   0.024   0.019   0.016   0.014   0.011   0.008   0.001   0.000      0      0      0       0       0  14.000  118.075
   15 146    70    69  34.679     2  3.171   1097    204      0   1243   2340   2340      0      0    0.0  0.000   1039   0.00   0.00   1.00   0.74   0.00   0.00   0.00   1.00   2.50 1260.0   0.00      0   1039    288.4   0.00   0.00 0.8097   0.060   0.028   0.024   0.019   0.017   0.014   0.011   0.008   0.002   0.000      0      0      0       0       0  11.500  129.575
   15 147    71    70  35.004     2  3.202   1116    222      0   1252   2397   2397      0      0    0.0  0.000   1059   0.00   0.00   1.00   0.75   0.00   0.00   0.00   1.00   2.48 1247.5   0.00      0   1059    288.4   0.00   0.00 0.8179   0.059   0.028   0.024   0.019   0.017   0.014   0.011   0.008   0.002   0.000      0      0      0       0       0   9.000  138.575
   15 148    72    71  35.419     2  3.263   1143    250      0   1271   2478   2478      0      0    0.0  0.000   1086   0.00   0.00   1.00   0.76   0.00   0.00   0.00   1.00   2.43 1231.6   0.00      0   1086    288.4   0.00   0.00 0.8282   0.059   0.029   0.024   0.019   0.017   0.014   0.011   0.008   0.002   0.000      0      0      0       0       0  11.500  150.075
   15 149    73    72  35.961     2  3.305   1164    273      0   1283   2544   2544      0      0    0.0  0.000   1107   0.00   0.00   1.00   0.78   0.00   0.00   0.00   1.00   2.40 1210.5   0.00      0   1107    288.4   0.00   0.00 0.8418   0.059   0.029   0.024   0.020   0.017   0.014   0.011   0.008   0.002   0.000      0      0      0       0       0  15.000  165.075
   15 150    74    73  36.485     2  3.334   1181    294      0   1292   2599   2599      0      0    0.0  0.000   1124   0.00   0.00   1.00   0.79   0.00   0.00   0.00   1.00   2.38 1189.7   0.00      0   1124    288.4   0.00   0.00 0.8548   0.059   0.029   0.024   0.020   0.017   0.014   0.011   0.008   0.003   0.000      0      0      0       0       0  14.500  179.575
   15 151    75    74  37.026     2  3.375   1201    320      0   1304   2665   2665      0      0    0.0  0.000   1144   0.00   0.00   1.00   0.79   0.00   0.00   0.00   1.00   2.35 1168.0   0.00      0   1144    288.4   0.00   0.00 0.8684   0.059   0.029   0.024   0.020   0.017   0.014   0.011   0.009   0.003   0.000      0      0      0       0       0  15.000  194.575
   15 152    76    75  37.694     2  3.412   1219    345      0   1315   2726   2726      0      0    0.0  0.000   1162   0.00   0.00   1.00   0.79   0.00   0.00   0.00   1.00   2.44 1140.7   0.00      0   1162    288.4   0.00   0.00 0.8851   0.061   0.029   0.024   0.020   0.017   0.014   0.012   0.009   0.003   0.000      0      0      0       0       0  18.500  213.075
   15 153    77    76  38.380     2  3.481   1248    390      0   1339   2829   2829      0      0    0.0  0.000   1191   0.00   0.00   1.00   0.67   0.00   0.00   0.00   1.00   2.50 1112.0   0.00      0   1191    288.4   0.00   0.00 0.9022   0.063   0.029   0.024   0.020   0.017   0.014   0.012   0.009   0.003   0.000      0      0      0       0       0  19.000  232.075
   15 154    78    77  39.098     2  3.579   1286    456      0   1375   2970   2970      0      0    0.0  0.000   1228   0.00   0.00   1.00   0.57   0.00   0.00   0.00   1.00   2.53 1081.3   0.00      0   1228    288.4   0.00   0.00 0.9201   0.066   0.029   0.024   0.020   0.017   0.015   0.012   0.009   0.003   0.000      0      0      0       0       0  19.875  251.950
   15 155    79    78  39.784     2  3.577   1331    543      0   1420   3149   3149      0      0    0.0  0.000   1274   0.00   0.00   1.00   0.50   0.00   0.00   0.00   1.00   2.50 1051.7   0.00      0   1274    288.4   0.00   0.00 0.9372   0.070   0.029   0.024   0.020   0.017   0.015   0.012   0.009   0.003   0.000      0      0      0       0       0  19.000  270.950
   15 156    80    79  40.555     2  3.604   1373    631      0   1463   3319   3319      0      0    0.0  0.000   1315   0.00   0.00   1.00   0.49   0.00   0.00   0.00   1.00   2.45 1018.0   0.00      0   1315    288.4   0.00   0.00 0.9564   0.075   0.029   0.025   0.020   0.017   0.015   0.012   0.009   0.004   0.000      0      0      0       0       0  21.346  292.296
   15 157    81    80  41.315     2  3.621   1406    711      0   1497   3467   3467      0      0    0.0  0.000   1349   0.00   0.00   1.00   0.50   0.00   0.00   0.00   1.00   2.46  984.4   0.00      0   1349    288.4   0.00   0.00 0.9753   0.079   0.029   0.025   0.020   0.018   0.015   0.012   0.009   0.004   0.001      0      0      0       0       0  21.029  313.325
   15 158    82    81  42.073     2  3.677   1446    816      0   1542   3652   3652      0      0    0.0  0.000   1389   0.00   0.00   1.00   0.42   0.00   0.00   0.00   1.00   2.43  950.6   0.00      0   1389    288.4   0.00   0.00 0.9942   0.083   0.029   0.025   0.020   0.018   0.015   0.012   0.009   0.004   0.001      0      0      0       0       0  21.000  334.325
   15 159    83    82  42.651     2  3.696   1468    877      0   1559   3755   3755      0      0    0.0  0.000   1410   0.00   0.00   1.00   0.41   0.00   0.00   0.00   1.00   2.45  924.8   0.00      0   1410    288.4   0.00   0.00 1.0086   0.086   0.030   0.025   0.021   0.018   0.015   0.012   0.009   0.004   0.001      0      0      0       0       0  16.000  350.325
   15 160    84    83  43.155     3  3.649   1468    965      0   1563   3843   3843      0      0    0.0  0.000   1410   0.00   0.00   1.00   0.33   0.00   0.00   0.00   1.00   2.48  905.4   0.00      0   1410    288.4   0.00   0.00 1.0194   0.087   0.030   0.025   0.021   0.018   0.015   0.012   0.010   0.004   0.002      0      0      0       0       0  12.000    2.325
   15 161    85    84  44.122     3  3.625   1468   1089      0   1573   3967   3967      0      0    0.0  0.000   1410   0.00   0.00   1.00   0.21   0.00   0.00   0.00   1.00   2.48  882.2   0.00      0   1410    288.4   0.00   0.00 1.0324   0.086   0.030   0.025   0.021   0.018   0.015   0.012   0.010   0.004   0.002      0      0      0       0       0  14.500   16.825
   15 162    86    85  45.322     3  3.598   1468   1268      0   1593   4146   4146      0      0    0.0  0.000   1410   0.00   0.00   1.00   0.16   0.00   0.00   0.00   1.00   2.48  853.6   0.00      0   1410    288.4   0.00   0.00 1.0486   0.086   0.030   0.025   0.021   0.018   0.015   0.012   0.010   0.004   0.002      0      0      0       0       0  18.000   34.825
   15 163    87    86  46.647     3  3.569   1468   1501      0   1623   4379   4379      0      0    0.0  0.000   1410   0.00   0.00   1.00   0.14   0.00   0.00   0.00   1.00   2.48  822.5   0.00      0   1410    288.4   0.00   0.00 1.0665   0.085   0.030   0.025   0.021   0.018   0.016   0.013   0.010   0.005   0.003      0      0      0       0       0  19.875   54.700
   15 164    88    87  47.947     3  3.540   1468   1699      0   1646   4577   4577      0      0    0.0  0.000   1410   0.00   0.00   1.00   0.16   0.00   0.00   0.00   1.00   2.48  792.4   0.00      0   1410    288.4   0.00   0.00 1.0841   0.085   0.031   0.026   0.021   0.018   0.016   0.013   0.010   0.005   0.003      0      0      0       0       0  19.500   74.200
   15 165    89    88  49.247     3  3.510   1468   1916      0   1673   4794   4794      0      0    0.0  0.000   1410   0.00   0.00   1.00   0.17   0.00   0.00   0.00   1.00   2.48  762.7   0.00      0   1410    288.4   0.00   0.00 1.1016   0.085   0.031   0.026   0.021   0.019   0.016   0.013   0.010   0.005   0.004      0      0      0       0       0  19.500   93.700
   15 166    90    89  50.213     3  3.486   1468   2037      0   1681   4915   4915      0      0    0.0  0.000   1410   0.00   0.00   1.00   0.20   0.00   0.00   0.00   1.00   2.48  740.9   0.00      0   1410    288.4   0.00   0.00 1.1128   0.085   0.031   0.026   0.022   0.019   0.016   0.013   0.010   0.005   0.004      0      0      0       0       0  14.500  108.200
   15 167    91    90  51.213     3  3.463   1468   2229      0   1703   5107   5107      0      0    0.0  0.000   1410   0.00   0.00   1.00   0.18   0.00   0.00   0.00   1.00   2.48  718.7   0.00      0   1410    288.4   0.00   0.00 1.1244   0.084   0.031   0.026   0.022   0.019   0.016   0.013   0.010   0.005   0.004      0      0      0       0       0  15.000  123.200
   15 168    92    91  52.180     3  3.440   1468   2439      0   1728   5317   5317      0      0    0.0  0.000   1410   0.00   0.00   1.00   0.18   0.00   0.00   0.00   1.00   2.48  697.6   0.00      0   1410    288.4   0.00   0.00 1.1356   0.084   0.031   0.026   0.022   0.019   0.016   0.013   0.011   0.005   0.005      0      0      0       0       0  14.500  137.700
   15 169    93    92  53.047     3  3.419   1468   2550      0   1734   5428   5428      0      0    0.0  0.000   1410   0.00   0.00   1.00   0.20   0.00   0.00   0.00   1.00   2.48  679.0   0.00      0   1410    288.4   0.00   0.00 1.1456   0.084   0.031   0.026   0.022   0.019   0.016   0.013   0.011   0.006   0.005      0      0      0       0       0  13.000  150.700
   15 170    94    93  53.880     3  3.399   1468   2713      0   1749   5591   5591      0      0    0.0  0.000   1410   0.00   0.00   1.00   0.17   0.00   0.00   0.00   1.00   2.48  661.3   0.00      0   1410    288.4   0.00   0.00 1.1553   0.083   0.031   0.026   0.022   0.019   0.016   0.013   0.011   0.006   0.005      0      0      0       0       0  12.500  163.200
   15 171    95    94  54.680     3  3.381   1468   2868      0   1763   5746   5746      0      0    0.0  0.000   1410   0.00   0.00   1.00   0.17   0.00   0.00   0.00   1.00   2.48  644.6   0.00      0   1410    288.4   0.00   0.00 1.1645   0.083   0.032   0.027   0.022   0.019   0.017   0.014   0.011   0.006   0.005      0      0      0       0       0  12.000  175.200
   15 172    96    95  55.547     3  3.362   1468   3027      0   1777   5905   5905      0      0    0.0  0.000   1410   0.00   0.00   1.00   0.15   0.00   0.00   0.00   1.00   2.48  626.8   0.00      0   1410    288.4   0.00   0.00 1.1746   0.082   0.032   0.027   0.022   0.019   0.017   0.014   0.011   0.006   0.005      0      0      0       0       0  13.000  188.200
   15 173    97    96  56.580     3  3.340   1468   3190      0   1790   6068   6068      0      0    0.0  0.000   1410   0.00   0.00   1.00   0.12   0.00   0.00   0.00   1.00   2.48  605.8   0.00      0   1410    288.4   0.00   0.00 1.1866   0.082   0.032   0.027   0.022   0.019   0.017   0.014   0.011   0.006   0.006      0      0      0       0       0  15.500  203.700
   15 174    98    97  57.413     3  3.323   1468   3380      0   1809   6258   6258      0      0    0.0  0.000   1410   0.00   0.00   1.00   0.12   0.00   0.00   0.00   1.00   2.48  589.2   0.00      0   1410    288.4   0.00   0.00 1.1962   0.082   0.032   0.027   0.022   0.020   0.017   0.014   0.011   0.006   0.006      0      0      0       0       0  12.500  216.200
   15 175    99    98  58.313     3  3.304   1468   3595      0   1832   6473   6473      0      0    0.0  0.000   1410   0.00   0.00   1.00   0.11   0.00   0.00   0.00   1.00   2.48  571.8   0.00      0   1410    288.4   0.00   0.00 1.2066   0.081   0.032   0.027   0.022   0.020   0.017   0.014   0.011   0.006   0.006      0      0      0       0       0  13.500  229.700
   15 176   100    99  59.240     4  3.304   1468   3811      0   1841   6689   6689      0      0    0.0  0.000   1410   0.00   0.00   1.00   0.11   0.00   0.00   0.00   1.00   2.48  571.8   0.00      0   1410    288.4   0.00   0.00 1.2171   0.081   0.032   0.027   0.023   0.020   0.017   0.014   0.012   0.007   0.006      0      0      0       0       0  13.500    3.200
   15 177   101   100  60.440     4  3.270   1468   4037      0   1850   6915   6915      0      0    0.0  0.000   1410   0.00   0.00   1.00   0.08   0.00   0.00   0.00   1.00   2.48  571.8   0.00      0   1410    288.4   0.00   0.00 1.2294   0.081   0.032   0.027   0.023   0.020   0.017   0.014   0.012   0.007   0.006      0      0      0       0       0  16.000   19.200
   15 178   102   101  61.753     4  3.231   1468   4192      0   1849   7070   7070      0      0    0.0  0.000   1410   0.00   0.00   1.00   0.00   0.00   0.00   0.00   1.00   2.48  571.8   0.00      0   1410    288.4   0.00   0.00 1.2429   0.080   0.032   0.027   0.023   0.020   0.017   0.014   0.012   0.007   0.006      0      0      0       0       0  17.500   36.700
   15 179   103   102  63.065     4  3.188   1468   4419      0   1856   7297   7297      0      0    0.0  0.000   1410   0.00   0.00   1.00   0.00   0.00   0.00   0.00   1.00   2.48  571.8   0.00      0   1410    288.4   0.00   0.00 1.2564   0.080   0.032   0.027   0.023   0.020   0.017   0.014   0.012   0.007   0.006      0      0      0       0       0  17.500   54.200
   15 180   104   103  64.453     4  3.145   1468   4633      0   1861   7511   7511      0      0    0.0  0.000   1410   0.00   0.00   1.00   0.00   0.00   0.00   0.00   1.00   2.48  571.8   0.00      0   1410    288.4   0.00   0.00 1.2707   0.079   0.032   0.027   0.023   0.020   0.017   0.014   0.012   0.007   0.006      0      0      0       0       0  18.500   72.700
   15 181   105   104  65.539     4  3.100   1468   4850      0   1866   7728   7728      0      0    0.0  0.000   1410   0.00   0.00   1.00   0.00   0.00   0.00   0.00   1.00   2.48  571.8   0.00      0   1410    288.4   0.00   0.00 1.2863   0.079   0.032   0.027   0.023   0.020   0.017   0.014   0.012   0.007   0.006      0      0      0       0       0  20.235   92.936
   15 182   106   105  66.388     4  3.050   1468   5074      0   1872   7952   7952      0      0    0.0  0.000   1410   0.00   0.00   1.00   0.00   0.00   0.00   0.00   1.00   2.48  571.8   0.00      0   1410    288.4   0.00   0.00 1.3021   0.078   0.032   0.027   0.023   0.020   0.017   0.014   0.012   0.007   0.007      0      0      0       0       0  20.367  113.302
   15 183   107   106  67.271     4  3.000   1468   5293      0   1878   8172   8172      0      0    0.0  0.000   1410   0.00   0.00   1.00   0.00   0.00   0.00   0.00   1.00   2.48  571.8   0.00      0   1410    288.4   0.00   0.00 1.3172   0.078   0.032   0.027   0.023   0.020   0.017   0.014   0.012   0.007   0.007      0      0      0       0       0  21.200  134.502
   15 184   108   107  68.178     4  2.948   1468   5469      0   1879   8347   8347      0      0    0.0  0.000   1410   0.00   0.00   1.00   0.00   0.00   0.00   0.00   1.00   2.48  571.8   0.00      0   1410    288.4   0.00   0.00 1.3328   0.078   0.032   0.027   0.023   0.020   0.017   0.014   0.012   0.007   0.007      0      0      0       0       0  21.765  156.267
   15 185   109   108  69.131     4  2.895   1468   5648      0   1880   8526   8526      0      0    0.0  0.000   1410   0.00   0.00   1.00   0.00   0.00   0.00   0.00   1.00   2.48  571.8   0.00      0   1410    288.4   0.00   0.00 1.3492   0.077   0.032   0.027   0.023   0.020   0.017   0.014   0.012   0.007   0.007      0      0      0       0       0  22.875  179.142
   15 186   110   109  70.070     5  2.839   1468   4743   1058   1875   7621   8679  16096  16096    6.6  0.122   1410   0.00   0.00   1.00   0.00   0.00   0.00   0.00   1.00   2.15  571.8   0.00      0   1410    288.4   0.00   0.00 1.3659   0.076   0.032   0.027   0.023   0.020   0.017   0.014   0.012   0.007   0.007      0      0      0       0       0  23.469    2.611
   15 187   111   110  70.665     5  2.838   1468   4498   1477   1868   7376   8853  16096  16096    9.2  0.167   1410   0.00   0.00   1.00   0.00   0.00   0.00   0.00   1.00   1.91  571.8   0.00      0   1410    288.4   0.00   0.00 1.3819   0.075   0.031   0.027   0.023   0.020   0.017   0.014   0.012   0.007   0.007      0      0      0       0       0  22.318   24.929
   15 188   112   111  71.280     5  2.832   1468   4177   1953   1857   7055   9008  16096  16096   12.1  0.217   1410   0.00   0.00   1.00   0.00   0.00   0.00   0.00   1.00   1.64  571.8   0.00      0   1410    288.4   0.00   0.00 1.3984   0.075   0.031   0.027   0.022   0.020   0.017   0.014   0.012   0.007   0.007      0      0      0       0       0  23.059   47.988
   15 189   113   112  71.733     5  2.821   1468   4016   2278   1843   6894   9172  16096  16096   14.2  0.248   1410   0.00   0.00   1.00   0.00   0.00   0.00   0.00   1.00   1.49  571.8   0.00      0   1410    288.4   0.00   0.00 1.4105   0.075   0.031   0.026   0.022   0.019   0.017   0.014   0.012   0.007   0.007      0      0      0       0       0  17.000   64.988
   15 190   114   113  72.093     5  2.810   1468   3901   2564   1827   6779   9343  16096  16096   15.9  0.274   1410   0.00   0.00   1.00   0.00   0.00   0.00   0.00   1.00   1.36  571.8   0.00      0   1410    288.4   0.00   0.00 1.4202   0.075   0.031   0.026   0.022   0.019   0.017   0.014   0.012   0.007   0.007      0      0      0       0       0  13.500   78.488
   15 191   115   114  72.480     5  2.799   1468   3877   2831   1809   6755   9586  16096  16096   17.6  0.295   1410   0.00   0.00   1.00   0.00   0.00   0.00   0.00   1.00   1.23  571.8   0.00      0   1410    288.4   0.00   0.00 1.4306   0.074   0.030   0.026   0.022   0.019   0.017   0.014   0.011   0.007   0.007      0      0      0       0       0  14.500   92.988
   15 192   116   115  72.957     5  2.786   1468   3877   3042   1791   6755   9797  16096  16096   18.9  0.311   1410   0.00   0.00   1.00   0.00   0.00   0.00   0.00   1.00   1.08  571.8   0.00      0   1410    288.4   0.00   0.00 1.4433   0.074   0.030   0.026   0.022   0.019   0.016   0.014   0.011   0.007   0.006      0      0      0       0       0  17.900  110.888
   15 193   117   116  73.489     5  2.766   1468   3877   3238   1773   6755   9992  16096  16096   20.1  0.324   1410   0.00   0.17   1.00   0.00   0.00   0.00   0.00   1.00   0.93  571.8   0.00      0   1410    288.4   0.00   0.00 1.4576   0.073   0.030   0.025   0.021   0.019   0.016   0.014   0.011   0.007   0.006      0      0      0       0       0  19.964  130.852
   15 194   118   117  73.969     5  2.739   1468   3877   3357   1755   6755  10112  16096  16096   20.9  0.332   1410   0.00   0.23   1.00   0.00   0.00   0.00   0.00   1.00   0.81  571.8   0.00      0   1410    288.4   0.00   0.00 1.4705   0.072   0.029   0.025   0.021   0.019   0.016   0.013   0.011   0.007   0.006      0      0      0       0       0  18.000  148.852
   15 195   119   118  74.503     5  2.712   1468   3877   3508   1738   6755  10263  16096  16096   21.8  0.342   1410   0.00   0.26   1.00   0.00   0.00   0.00   0.00   1.00   0.74  571.8   0.00      0   1410    288.4   0.00   0.00 1.4848   0.071   0.029   0.025   0.021   0.018   0.016   0.013   0.011   0.007   0.006      0      0      0       0       0  20.000  168.852
   15 196   120   119  75.075     5  2.678   1468   3877   3686   1720   6755  10440  16096  16096   22.9  0.353   1410   0.00   0.32   1.00   0.00   0.00   0.00   0.00   1.00   0.68  571.8   0.00      0   1410    288.4   0.00   0.00 1.5001   0.071   0.029   0.025   0.021   0.018   0.016   0.013   0.011   0.007   0.006      0      0      0       0       0  21.455  190.307
   15 197   121   120  75.643     5  2.637   1468   3877   3857   1703   6755  10611  16096  16096   24.0  0.363   1410   0.00   0.40   1.00   0.00   0.00   0.00   0.00   1.00   0.64  571.8   0.00      0   1410    288.4   0.00   0.00 1.5123   0.070   0.029   0.024   0.020   0.018   0.016   0.013   0.011   0.007   0.006      0      0      0       0       0  21.306  211.612
   15 198   122   121  76.247     5  2.592   1468   3877   3994   1686   6755  10749  16096  16096   24.8  0.372   1410   0.00   0.50   1.00   0.00   0.00   0.00   0.00   1.00   0.61  571.8   0.00      0   1410    288.4   0.00   0.00 1.5252   0.069   0.028   0.024   0.020   0.018   0.015   0.013   0.011   0.006   0.006      0      0      0       0       0  22.639  234.251
   15 199   123   122  76.812     5  2.538   1468   3877   4122   1669   6755  10877  16096  16096   25.6  0.379   1410   0.00   0.58   1.00   0.00   0.00   0.00   0.00   1.00   0.59  571.8   0.00      0   1410    288.4   0.00   0.00 1.5373   0.069   0.028   0.024   0.020   0.018   0.015   0.013   0.011   0.006   0.006      0      0      0       0       0  21.200  255.451
   15 200   124   123  77.394     5  2.483   1468   3877   4249   1653   6755  11004  16096  16096   26.4  0.386   1410   0.00   0.63   1.00   0.00   0.00   0.00   0.00   1.00   0.57  571.8   0.00      0   1410    288.4   0.00   0.00 1.5497   0.068   0.028   0.024   0.020   0.017   0.015   0.013   0.010   0.006   0.006      0      0      0       0       0  21.833  277.284
   15 201   125   124  78.002     5  2.422   1468   3883   4378   1636   6761  11139  16096  16096   27.2  0.393   1410   0.00   0.66   1.00   0.00   0.00   0.00   0.00   1.00   0.55  571.8   0.00      0   1410    288.4   0.00   0.00 1.5627   0.067   0.027   0.023   0.020   0.017   0.015   0.012   0.010   0.006   0.006      0      0      0       0       0  22.800  300.084
   15 202   126   125  78.612     5  2.353   1468   3907   4495   1620   6785  11280  16096  16096   27.9  0.398   1410   0.03   0.69   1.00   0.00   0.00   0.00   0.00   1.00   0.53  571.8   0.00      0   1410    288.4   0.00   0.00 1.5757   0.067   0.027   0.023   0.019   0.017   0.015   0.012   0.010   0.006   0.006      0      0      0       0       0  22.875  322.959
   15 203   127   126  79.221     5  2.279   1468   3913   4602   1604   6791  11393  16096  16096   28.6  0.404   1410   0.09   0.74   1.00   0.00   0.00   0.00   0.00   1.00   0.51  571.8   0.00      0   1410    288.4   0.00   0.00 1.5887   0.066   0.027   0.023   0.019   0.017   0.015   0.012   0.010   0.006   0.006      0      0      0       0       0  22.816  345.775
   15 204   128   127  79.781     5  2.199   1468   3903   4702   1588   6781  11482  16096  16096   29.2  0.409   1410   0.15   0.79   1.00   0.00   0.00   0.00   0.00   1.00   0.50  571.8   0.00      0   1410    288.4   0.00   0.00 1.6007   0.065   0.027   0.023   0.019   0.017   0.015   0.012   0.010   0.006   0.006      0      0      0       0       0  21.000  366.775
   15 205   129   128  80.346     5  2.121   1468   3918   4799   1573   6796  11596  16096  16096   29.8  0.414   1410   0.15   0.79   1.00   0.00   0.00   0.00   0.00   1.00   0.49  571.8   0.00      0   1410    288.4   0.00   0.00 1.6128   0.065   0.026   0.023   0.019   0.017   0.014   0.012   0.010   0.006   0.006      0      0      0       0       0  21.200  387.975
   15 206   130   129  80.839     5  2.038   1468   3946   4888   1557   6824  11712  16096  16096   30.4  0.417   1410   0.19   0.82   1.00   0.00   0.00   0.00   0.00   1.00   0.47  571.8   0.00      0   1410    288.4   0.00   0.00 1.6233   0.064   0.026   0.022   0.019   0.016   0.014   0.012   0.010   0.006   0.006      0      0      0       0       0  18.500  406.475
   15 207   131   130  81.253     5  1.963   1468   4002   4967   1542   6880  11847  16096  16096   30.9  0.419   1410   0.18   0.81   1.00   0.00   0.00   0.00   0.00   1.00   0.46  571.8   0.00      0   1410    288.4   0.00   0.00 1.6321   0.063   0.026   0.022   0.019   0.016   0.014   0.012   0.010   0.006   0.006      0      0      0       0       0  15.500  421.975
   15 208   132   131  81.719     5  1.897   1468   4044   5038   1528   6922  11959  16096  16096   31.3  0.421   1410   0.11   0.76   1.00   0.00   0.00   0.00   0.00   1.00   0.45  571.8   0.00      0   1410    288.4   0.00   0.00 1.6421   0.063   0.026   0.022   0.018   0.016   0.014   0.012   0.010   0.006   0.006      0      0      0       0       0  17.500  439.475
   15 209   133   132  82.173     5  1.819   1468   4068   5113   1514   6946  12059  16096  16096   31.8  0.424   1410   0.13   0.77   1.00   0.00   0.00   0.00   0.00   1.00   0.44  571.8   0.00      0   1410    288.4   0.00   0.00 1.6518   0.062   0.025   0.022   0.018   0.016   0.014   0.011   0.010   0.006   0.005      0      0      0       0       0  17.000  456.475
   15 210   134   133  82.559     5  1.741   1468   4074   5185   1501   6952  12137  16096  16096   32.2  0.427   1410   0.11   0.76   1.00   0.00   0.00   0.00   0.00   1.00   0.43  571.8   0.00      0   1410    288.4   0.00   0.00 1.6601   0.062   0.025   0.021   0.018   0.016   0.014   0.011   0.009   0.006   0.005      0      0      0       0       0  14.500  470.975
   15 211   135   134  82.933     5  1.672   1468   4109   5256   1487   6987  12243  16096  16096   32.7  0.429   1410   0.13   0.78   1.00   0.00   0.00   0.00   0.00   1.00   0.42  571.8   0.00      0   1410    288.4   0.00   0.00 1.6680   0.061   0.025   0.021   0.018   0.016   0.014   0.011   0.009   0.006   0.005      0      0      0       0       0  14.000  484.975
   15 212   136   135  83.359     5  1.603   1468   4155   5323   1475   7033  12356  16096  16096   33.1  0.431   1410   0.12   0.77   1.00   0.00   0.00   0.00   0.00   1.00   0.41  571.8   0.00      0   1410    288.4   0.00   0.00 1.6772   0.060   0.025   0.021   0.018   0.015   0.013   0.011   0.009   0.006   0.005      0      0      0       0       0  16.000  500.975
   15 213   137   136  83.799     5  1.522   1468   4152   5388   1462   7030  12418  16096  16096   33.5  0.434   1410   0.11   0.76   1.00   0.00   0.00   0.00   0.00   1.00   0.40  571.8   0.00      0   1410    288.4   0.00   0.00 1.6866   0.060   0.024   0.021   0.017   0.015   0.013   0.011   0.009   0.006   0.005      0      0      0       0       0  16.500  517.475
   15 214   138   137  84.293     5  1.436   1468   4166   5459   1449   7044  12503  16096  16096   33.9  0.437   1410   0.10   0.75   1.00   0.00   0.00   0.00   0.00   1.00   0.39  571.8   0.00      0   1410    288.4   0.00   0.00 1.6971   0.059   0.024   0.021   0.017   0.015   0.013   0.011   0.009   0.006   0.005      0      0      0       0       0  18.500  535.975
   15 215   139   138  84.810     5  1.336   1468   4185   5534   1437   7063  12597  16096  16096   34.4  0.439   1410   0.09   0.74   1.00   0.00   0.00   0.00   0.00   1.00   0.38  571.8   0.00      0   1410    288.4   0.00   0.00 1.7081   0.059   0.024   0.020   0.017   0.015   0.013   0.011   0.009   0.006   0.005      0      0      0       0       0  19.382  555.358
   15 216   140   139  85.365     5  1.228   1468   4175   5614   1424   7053  12667  16096  16096   34.9  0.443   1410   0.08   0.73   1.35   0.00   0.00   0.00   0.00   1.00   0.37  571.8   0.00      0   1410    288.4   0.00   0.00 1.7179   0.058   0.024   0.020   0.017   0.015   0.013   0.011   0.009   0.006   0.005      0      0      0       0       0  20.842  576.200
   15 217   141   140  85.918     5  1.064   1468   4163   5699   1412   7041  12739  16096  16096   35.4  0.447   1410   0.06   0.72   1.00   0.00   0.00   0.00   0.00   1.00   0.36  571.8   0.00      0   1410    288.4   0.00   0.00 1.7276   0.057   0.023   0.020   0.017   0.015   0.013   0.011   0.009   0.005   0.005      0      0      0       0       0  20.719  596.918
   15 218   142   141  86.498     5  0.939   1468   4132   5787   1399   7010  12797  16096  16096   36.0  0.452   1410   0.05   0.71   1.93   0.03   0.00   0.00   0.00   1.00   0.34  571.8   0.00      0   1410    288.4   0.00   0.00 1.7378   0.057   0.023   0.020   0.017   0.015   0.013   0.011   0.009   0.005   0.005      0      0      0       0       0  21.775  618.693
   15 219   143   142  87.100     5  0.677   1468   4077   5882   1386   6955  12836  16096  16096   36.5  0.458   1410   0.04   0.70   2.49   0.05   0.00   0.00   0.00   1.00   0.33  571.8   0.00      0   1410    288.4   0.00   0.00 1.7484   0.056   0.023   0.020   0.016   0.014   0.013   0.010   0.009   0.005   0.005      0      0      0       0       0  22.551  641.245
   15 220   144   143  87.708     5  0.313   1468   3996   5983   1373   6874  12856  16096  16096   37.2  0.465   1410   0.03   0.69   2.18   0.07   0.00   0.00   0.00   1.00   0.32  571.8   0.00      0   1410    288.4   0.00   0.00 1.7591   0.056   0.023   0.019   0.016   0.014   0.012   0.010   0.009   0.005   0.005      0      0      0       0       0  22.816  664.060
   15 221   145   144  88.323     5  0.000   1468   3996   5983   1359   6874  12857  16096  16096   37.2  0.465   1410   0.02   0.68   1.88   0.09   0.00   0.00   0.00   1.00   0.32  571.8   0.00      0   1410    288.4   0.00   0.00 1.7699   0.055   0.022   0.019   0.016   0.014   0.012   0.010   0.008   0.005   0.005      0      0      0       0       0  23.059  687.119
   15 222   146   145  88.933     5  0.000   1468   3996   5983   1345   6874  12857  16096  16096   37.2  0.465   1410   0.01   0.67   1.01   0.00   0.00   0.00   0.00   1.00   0.32  571.8   0.00      0   1410    288.4   0.00   0.00 1.7806   0.055   0.022   0.019   0.016   0.014   0.012   0.010   0.008   0.005   0.005      0      0      0       0       0  22.885  710.004
   15 223   147   146  89.538     5  0.000   1468   3997   5983   1332   6875  12857  16096  16096   37.2  0.465   1410   0.00   0.66   1.31   0.00   0.00   0.00   0.00   1.00   0.32  571.8   0.00      0   1410    288.4   0.00   0.00 1.7912   0.054   0.022   0.019   0.016   0.014   0.012   0.010   0.008   0.005   0.005      0      0      0       0       0  22.667  732.670
   15 224   148   147  90.000     6  0.000   1468   3997   5983   1319   6875  12857  16096  16096   37.2  0.465   1410   0.00   0.66   1.91   0.00   0.00   0.00   0.00   1.00   0.32  571.8   0.00      0   1410    288.4   0.00   0.00 1.7912   0.053   0.022   0.019   0.016   0.014   0.012   0.010   0.008   0.005   0.005      0      0      0       0       0  22.211    4.881
   15 225   149   148  90.000     7  0.000   1468   3997   5983   1319   6875  12857  16096  16096   37.2  0.465   1410   0.00   0.66   1.91   0.00   0.00   0.00   0.00   1.00   0.32  571.8   0.00      0   1410    288.4   0.00   0.00 1.7912   0.053   0.022   0.019   0.016   0.014   0.012   0.010   0.008   0.005   0.005      0      0      0       0       0  22.211    7.000
   15 226   150   149  90.000     7  0.000   1468   3997   5983   1319   6875  12857  16096  16096   37.2  0.465   1410   0.00   0.66   1.91   0.00   0.00   0.00   0.00   1.00   0.32  571.8   0.00      0   1410    288.4   0.00   0.00 1.7912   0.053   0.022   0.019   0.016   0.014   0.012   0.010   0.008   0.005   0.005      0      0      0       0       0  22.211    7.000
   15 227   151   150  90.000     7  0.000   1468   3997   5983   1319   6875  12857  16096  16096   37.2  0.465   1410   0.00   0.66   1.91   0.00   0.00   0.00   0.00   1.00   0.32  571.8   0.00      0   1410    288.4   0.00   0.00 1.7912   0.053   0.022   0.019   0.016   0.014   0.012   0.010   0.008   0.005   0.005      0      0      0       0       0  22.211    7.000
   15 228   152   151  90.000     7  0.000   1468   3997   5983   1319   6875  12857  16096  16096   37.2  0.465   1410   0.00   0.66   1.91   0.00   0.00   0.00   0.00   1.00   0.32  571.8   0.00      0   1410    288.4   0.00   0.00 1.7912   0.053   0.022   0.019   0.016   0.014   0.012   0.010   0.008   0.005   0.005      0      0      0       0       0  22.211    7.000
   15 229   153   152  90.000     7  0.000   1468   3997   5983   1319   6875  12857  16096  16096   37.2  0.465   1410   0.00   0.66   1.91   0.00   0.00   0.00   0.00   1.00   0.32  571.8   0.00      0   1410    288.4   0.00   0.00 1.7912   0.053   0.022   0.019   0.016   0.014   0.012   0.010   0.008   0.005   0.005      0      0      0       0       0  22.211    7.000
   15 230   154   153  90.000     7  0.000   1468   3997   5983   1319   6875  12857  16096  16096   37.2  0.465   1410   0.00   0.66   1.91   0.00   0.00   0.00   0.00   1.00   0.32  571.8   0.00      0   1410    288.4   0.00   0.00 1.7912   0.053   0.022   0.019   0.016   0.014   0.012   0.010   0.008   0.005   0.005      0      0      0       0       0  22.211    7.000
   15 231   155   154  90.000     7  0.000   1468   3997   5983   1319   6875  12857  16096  16096   37.2  0.465   1410   0.00   0.66   1.91   0.00   0.00   0.00   0.00   1.00   0.32  571.8   0.00      0   1410    288.4   0.00   0.00 1.7912   0.053   0.022   0.019   0.016   0.014   0.012   0.010   0.008   0.005   0.005      0      0      0       0       0  22.211    7.000
   15 232   156   155  90.000     7  0.000   1468   3997   5983   1319   6875  12857  16096  16096   37.2  0.465   1410   0.00   0.66   1.91   0.00   0.00   0.00   0.00   1.00   0.32  571.8   0.00      0   1410    288.4   0.00   0.00 1.7912   0.053   0.022   0.019   0.016   0.014   0.012   0.010   0.008   0.005   0.005      0      0      0       0       0  22.211    7.000
   15 233   157   156  90.000     7  0.000   1468   3997   5983   1319   6875  12857  16096  16096   37.2  0.465   1410   0.00   0.66   1.91   0.00   0.00   0.00   0.00   1.00   0.32  571.8   0.00      0   1410    288.4   0.00   0.00 1.7912   0.053   0.022   0.019   0.016   0.014   0.012   0.010   0.008   0.005   0.005      0      0      0       0       0  22.211    7.000
   15 234   158   157  90.000     7  0.000   1468   3997   5983   1319   6875  12857  16096  16096   37.2  0.465   1410   0.00   0.66   1.91   0.00   0.00   0.00   0.00   1.00   0.32  571.8   0.00      0   1410    288.4   0.00   0.00 1.7912   0.053   0.022   0.019   0.016   0.014   0.012   0.010   0.008   0.005   0.005      0      0      0       0       0  22.211    7.000
   15 235   159   158  90.000     7  0.000   1468   3997   5983   1319   6875  12857  16096  16096   37.2  0.465   1410   0.00   0.66   1.91   0.00   0.00   0.00   0.00   1.00   0.32  571.8   0.00      0   1410    288.4   0.00   0.00 1.7912   0.053   0.022   0.019   0.016   0.014   0.012   0.010   0.008   0.005   0.005      0      0      0       0       0  22.211    7.000
   15 236   160   159  90.000     7  0.000   1468   3997   5983   1319   6875  12857  16096  16096   37.2  0.465   1410   0.00   0.66   1.91   0.00   0.00   0.00   0.00   1.00   0.32  571.8   0.00      0   1410    288.4   0.00   0.00 1.7912   0.053   0.022   0.019   0.016   0.014   0.012   0.010   0.008   0.005   0.005      0      0      0       0       0  22.211    7.000
   15 237   161   160  90.000     7  0.000   1468   3997   5983   1319   6875  12857  16096  16096   37.2  0.465   1410   0.00   0.66   1.91   0.00   0.00   0.00   0.00   1.00   0.32  571.8   0.00      0   1410    288.4   0.00   0.00 1.7912   0.053   0.022   0.019   0.016   0.014   0.012   0.010   0.008   0.005   0.005      0      0      0       0       0  22.211    7.000

*DSSAT Cropping System Model Ver. 4.8.5.000 -release  FEB 02, 2026 11:46:55

*RUN   2        : 2                         WHAPS048 TUDU1501    2
 MODEL          : WHAPS048 - Wheat
 EXPERIMENT     : TUDU1501 WH
 DATA PATH      :
 TREATMENT  2   : 2                         WHAPS048
  
!                                                                                                                                                                                                                                             Root Dens. (cm/cm3) by soil depth (cm):
!                                                                                                                                                                                                                                             0-5    5-15   15-20   20-30   30-40   40-50   50-60   60-70   70-90  90-210
@YEAR DOY   DAS   DAP    DCCD  GSTD   LAID   LWAD   SWAD   GWAD   RWAD   VWAD   CWAD   G#AD   G#AD2  GWGD   HIAD   SHAD   WSPD   WSGD   SLFT   NSTD   EWSD  PST1A  PST2A   KSTD   LN%D   TPSM   HIPD   PWDD   PWTD     SLAD   CHTD   CWID   RDPD    RL1D    RL2D    RL3D    RL4D    RL5D    RL6D    RL7D    RL8D    RL9D   RL10D   CDAD   LDAD   SDAD   SNW0C   SNW1C    DTTD   SUMDTT
   15 077     1     0   0.000     8  0.000      0      0      0      0      0      0      0      0    0.0  0.000      0   0.00   0.00   0.00   0.00   0.00   0.00   0.00   1.00   0.00    0.0   0.00      0      0      0.0   0.00   0.00 0.0250   0.000   0.000   0.000   0.000   0.000   0.000   0.000   0.000   0.000   0.000      0      0      0       0       0   7.000    0.000
   15 078     2     1   0.000     8  0.000      0      0      0      0      0      0      0      0    0.0  0.000      0   0.00   0.00   0.00   0.00   0.00   0.00   0.00   1.00   0.00    0.0   0.00      0      0      0.0   0.00   0.00 0.0250   0.000   0.000   0.000   0.000   0.000   0.000   0.000   0.000   0.000   0.000      0      0      0       0       0   7.097    7.097
   15 079     3     2   1.022     9  0.000      0      0      0      0      0      0      0      0    0.0  0.000      0   0.00   0.00   0.00   0.00   0.00   0.00   0.00   1.00   0.00    0.0   0.00      0      0      0.0   0.00   0.00 0.0250   0.000   0.000   0.000   0.000   0.000   0.000   0.000   0.000   0.000   0.000      0      0      0       0       0   6.695    6.695
   15 080     4     3   2.060     9  0.000      0      0      0      0      0      0      0      0    0.0  0.000      0   0.00   0.00   0.00   0.00   0.00   0.00   0.00   1.00   0.00    0.0   0.00      0      0      0.0   0.00   0.00 0.0317   0.000   0.000   0.000   0.000   0.000   0.000   0.000   0.000   0.000   0.000      0      0      0       0       0   6.798   13.493
   15 081     5     4   2.594     9  0.000      0      0      0      0      0      0      0      0    0.0  0.000      0   0.00   0.00   0.00   0.00   0.00   0.00   0.00   1.00   0.00    0.0   0.00      0      0      0.0   0.00   0.00 0.0385   0.000   0.000   0.000   0.000   0.000   0.000   0.000   0.000   0.000   0.000      0      0      0       0       0   3.500   16.993
   15 082     6     5   3.052     9  0.000      0      0      0      0      0      0      0      0    0.0  0.000      0   0.00   0.00   0.00   0.00   0.00   0.00   0.00   1.00   0.00    0.0   0.00      0      0      0.0   0.00   0.00 0.0420   0.000   0.000   0.000   0.000   0.000   0.000   0.000   0.000   0.000   0.000      0      0      0       0       0   3.000   19.993
   15 083     7     6   4.227     9  0.000      0      0      0      0      0      0      0      0    0.0  0.000      0   0.00   0.00   0.00   0.00   0.00   0.00   0.00   1.00   0.00    0.0   0.00      0      0      0.0   0.00   0.00 0.0450   0.000   0.000   0.000   0.000   0.000   0.000   0.000   0.000   0.000   0.000      0      0      0       0       0   7.695   27.688
   15 084     8     7   5.525     9  0.000      0      0      0      0      0      0      0      0    0.0  0.000      0   0.00   0.00   0.00   0.00   0.00   0.00   0.00   1.00   0.00    0.0   0.00      0      0      0.0   0.00   0.00 0.0500   0.000   0.000   0.000   0.000   0.000   0.000   0.000   0.000   0.000   0.000      0      0      0       0       0   8.500   36.188
   15 085     9     8   6.365     9  0.000      0      0      0      0      0      0      0      0    0.0  0.000      0   0.00   0.00   0.00   0.00   0.00   0.00   0.00   1.00   0.00    0.0   0.00      0      0      0.0   0.00   0.00 0.0500   0.000   0.000   0.000   0.000   0.000   0.000   0.000   0.000   0.000   0.000      0      0      0       0       0   5.500   41.688
   15 086    10     9   7.281     9  0.000      0      0      0      0      0      0      0      0    0.0  0.000      0   0.00   0.00   0.00   0.00   0.00   0.00   0.00   1.00   0.00    0.0   0.00      0      0      0.0   0.00   0.00 0.0500   0.000   0.000   0.000   0.000   0.000   0.000   0.000   0.000   0.000   0.000      0      0      0       0       0   6.000   47.688
   15 087    11    10   8.197     9  0.000      0      0      0      0      0      0      0      0    0.0  0.000      0   0.00   0.00   0.00   0.00   0.00   0.00   0.00   1.00   0.00    0.0   0.00      0      0      0.0   0.00   0.00 0.0500   0.000   0.000   0.000   0.000   0.000   0.000   0.000   0.000   0.000   0.000      0      0      0       0       0   6.000   53.688
   15 088    12    11   9.571     9  0.000      0      0      0      0      0      0      0      0    0.0  0.000      0   0.00   0.00   0.00   0.00   0.00   0.00   0.00   1.00   0.00    0.0   0.00      0      0      0.0   0.00   0.00 0.0500   0.000   0.000   0.000   0.000   0.000   0.000   0.000   0.000   0.000   0.000      0      0      0       0       0   9.000   62.688
   15 089    13    12  10.159     1  0.018     10      0      0     24     11     11      0      0    0.0  0.000      1   0.00   0.00   1.00   0.00   0.00   0.00   0.00   1.00   5.83  400.0   0.00      0      1    397.9   0.00   0.00 0.0614   0.042   0.005   0.000   0.000   0.000   0.000   0.000   0.000   0.000   0.000      0      0      0       0       0   6.000    3.188
   15 090    14    13  10.415     1  0.021     12      0      0     25     13     13      0      0    0.0  0.000      1   0.00   0.00   1.00   0.00   0.00   0.00   0.00   1.00   5.39  400.0   0.00      0      1    394.7   0.00   0.00 0.0747   0.042   0.005   0.000   0.000   0.000   0.000   0.000   0.000   0.000   0.000      0      0      0       0       0   7.000    8.294
   15 091    15    14  10.525     1  0.022     12      0      0     25     14     14      0      0    0.0  0.000      2   0.00   0.00   1.00   0.00   0.00   0.00   0.00   1.00   6.09  400.0   0.00      0      2    393.3   0.00   0.00 0.0804   0.041   0.005   0.000   0.000   0.000   0.000   0.000   0.000   0.000   0.000      0      0      0       0       0   3.000   10.502
   15 092    16    15  10.637     1  0.024     13      0      0     25     15     15      0      0    0.0  0.000      2   0.00   0.00   1.00   0.00   0.00   0.00   0.00   1.00   6.06  400.0   0.00      0      2    392.0   0.00   0.00 0.0861   0.041   0.005   0.000   0.000   0.000   0.000   0.000   0.000   0.000   0.000      0      0      0       0       0   3.000   12.731
   15 093    17    16  10.827     1  0.028     14      0      0     26     17     17      0      0    0.0  0.000      3   0.00   0.00   1.00   0.00   0.00   0.00   0.00   1.00   5.74  400.0   0.00      0      3    389.7   0.00   0.00 0.0958   0.041   0.005   0.000   0.000   0.000   0.000   0.000   0.000   0.000   0.000      0      0      0       0       0   5.097   16.550
   15 094    18    17  10.941     1  0.029     14      0      0     26     18     18      0      0    0.0  0.000      3   0.00   0.00   1.00   0.00   0.00   0.00   0.00   1.00   6.00  400.0   0.00      0      3    388.3   0.00   0.00 0.1014   0.040   0.005   0.000   0.000   0.000   0.000   0.000   0.000   0.000   0.000      0      0      0       0       0   3.000   18.821
   15 095    19    18  11.063     1  0.031     15      0      0     27     19     19      0      0    0.0  0.000      4   0.00   0.00   1.00   0.00   0.00   0.00   0.00   1.00   6.04  400.0   0.00      0      4    386.9   0.00   0.00 0.1075   0.040   0.005   0.000   0.000   0.000   0.000   0.000   0.000   0.000   0.000      0      0      0       0       0   3.195   21.259
   15 096    20    19  11.186     1  0.033     15      0      0     28     20     20      0      0    0.0  0.000      4   0.00   0.00   1.00   0.00   0.00   0.00   0.00   1.00   6.02  400.0   0.00      0      4    385.5   0.00   0.00 0.1136   0.040   0.005   0.000   0.000   0.000   0.000   0.000   0.000   0.000   0.000      0      0      0       0       0   3.195   23.715
   15 097    21    20  11.348     1  0.036     16      0      0     29     22     22      0      0    0.0  0.000      5   0.00   0.00   1.00   0.00   0.00   0.00   0.00   1.00   5.82  400.0   0.00      0      5    383.6   0.00   0.00 0.1215   0.039   0.005   0.000   0.000   0.000   0.000   0.000   0.000   0.000   0.000      0      0      0       0       0   4.195   26.965
   15 098    22    21  11.602     1  0.044     19      0      0     31     27     27      0      0    0.0  0.000      7   0.00   0.00   1.00   0.00   0.00   0.00   0.00   1.00   5.13  400.0   0.00      0      7    380.8   0.00   0.00 0.1339   0.039   0.005   0.000   0.000   0.000   0.000   0.000   0.000   0.000   0.000      0      0      0       0       0   6.500   32.037
   15 099    23    22  11.994     1  0.056     27      0      0     33     38     38      0      0    0.0  0.000     10   0.00   0.00   1.00   0.00   0.00   0.00   0.00   1.00   4.38  400.0   0.00      0     10    376.5   0.00   0.00 0.1529   0.039   0.005   0.000   0.000   0.000   0.000   0.000   0.000   0.000   0.000      0      0      0       0       0  10.000   39.882
   15 100    24    23  12.428     1  0.068     32      0      0     35     46     46      0      0    0.0  0.000     14   0.00   0.00   1.00   0.47   0.00   0.00   0.00   1.00   5.09  400.0   0.00      0     14    372.0   0.00   0.00 0.1722   0.039   0.005   0.000   0.000   0.000   0.000   0.000   0.000   0.000   0.000      0      0      0       0       0  11.000   48.554
   15 101    25    24  12.883     1  0.081     40      0      0     38     58     58      0      0    0.0  0.000     17   0.00   0.00   1.00   0.29   0.00   0.00   0.00   1.00   4.81  400.0   0.00      0     17    367.4   0.00   0.00 0.1925   0.039   0.005   0.000   0.000   0.000   0.000   0.000   0.000   0.000   0.000      0      0      0       0       0  11.500   57.659
   15 102    26    25  13.340     1  0.099     48      0      0     42     71     71      0      0    0.0  0.000     22   0.00   0.00   1.00   0.33   0.00   0.00   0.00   1.00   4.92  400.0   0.00      0     22    363.1   0.00   0.00 0.2127   0.039   0.005   0.000   0.000   0.000   0.000   0.000   0.000   0.000   0.000      0      0      0       0       0  11.500   66.804
   15 103    27    26  13.799     1  0.119     58      0      0     46     86     86      0      0    0.0  0.000     28   0.00   0.00   1.00   0.30   0.00   0.00   0.00   1.00   4.92  400.0   0.00      0     28    358.9   0.00   0.00 0.2304   0.039   0.005   0.000   0.000   0.000   0.000   0.000   0.000   0.000   0.000      0      0      0       0       0  11.500   75.989
   15 104    28    27  14.261     1  0.149     68      0      0     53    104    104      0      0    0.0  0.000     36   0.00   0.00   1.00   0.29   0.00   0.00   0.00   1.00   4.53  400.0   0.00      0     36    354.9   0.00   0.00 0.2481   0.039   0.005   0.001   0.000   0.000   0.000   0.000   0.000   0.000   0.000      0      0      0       0       0  11.500   85.213
   15 105    29    28  14.824     1  0.185     79      0      0     62    126    126      0      0    0.0  0.000     46   0.00   0.00   1.00   0.40   0.00   0.00   0.00   1.00   4.09  400.0   0.00      0     46    350.3   0.00   0.00 0.2697   0.039   0.006   0.001   0.000   0.000   0.000   0.000   0.000   0.000   0.000      0      0      0       0       0  14.000   96.473
   15 106    30    29  15.428     1  0.210     89      0      0     68    143    143      0      0    0.0  0.000     54   0.00   0.00   1.00   0.54   0.00   0.00   0.00   1.00   3.82  400.0   0.00      0     54    345.5   0.00   0.00 0.2928   0.038   0.006   0.001   0.001   0.000   0.000   0.000   0.000   0.000   0.000      0      0      0       0       0  15.000  108.561
   15 107    31    30  15.853     1  0.226     96      0      0     71    154    154      0      0    0.0  0.000     58   0.00   0.00   1.00   0.61   0.00   0.00   0.00   1.00   5.57  400.0   0.00      0     58    342.4   0.00   0.00 0.3090   0.038   0.006   0.002   0.001   0.000   0.000   0.000   0.000   0.000   0.000      0      0      0       0       0  10.500  117.064
   15 108    32    31  16.057     1  0.240    101      0      0     79    163    163      0      0    0.0  0.000     63   0.00   0.00   1.00   0.00   0.00   0.00   0.00   1.00   5.67  400.0   0.00      0     63    340.9   0.00   0.00 0.3159   0.038   0.006   0.002   0.001   0.000   0.000   0.000   0.000   0.000   0.000      0      0      0       0       0   5.000  121.144
   15 109    33    32  16.304     1  0.261    107      0      0     91    176    176      0      0    0.0  0.000     69   0.00   0.00   1.00   0.00   0.00   0.00   0.00   1.00   5.62  400.0   0.00      0     69    339.2   0.00   0.00 0.3243   0.038   0.006   0.002   0.001   0.000   0.000   0.000   0.000   0.000   0.000      0      0      0       0       0   6.000  126.075
   15 110    34    33  16.635     1  0.297    119      0      0    111    199    199      0      0    0.0  0.000     79   0.00   0.00   1.00   0.00   0.00   0.00   0.00   1.00   5.53  400.0   0.00      0     79    337.0   0.00   0.00 0.3354   0.039   0.007   0.002   0.001   0.000   0.000   0.000   0.000   0.000   0.000      0      0      0       0       0   8.000  132.693
   15 111    35    34  17.050     1  0.350    137      0      0    141    232    232      0      0    0.0  0.000     95   0.00   0.00   1.00   0.00   0.00   0.00   0.00   1.00   5.44  400.0   0.00      0     95    334.2   0.00   0.00 0.3493   0.040   0.008   0.003   0.002   0.000   0.000   0.000   0.000   0.000   0.000      0      0      0       0       0  10.000  141.007
   15 112    36    35  17.489     1  0.408    156      0      0    175    269    269      0      0    0.0  0.000    113   0.00   0.00   1.00   0.00   0.00   0.00   0.00   1.00   5.38  400.0   0.00      0    113    331.5   0.00   0.00 0.3640   0.041   0.009   0.004   0.002   0.000   0.000   0.000   0.000   0.000   0.000      0      0      0       0       0  10.500  149.780
   15 113    37    36  17.741     1  0.431    164      0      0    188    284    284      0      0    0.0  0.000    120   0.00   0.00   1.00   0.00   0.00   0.00   0.00   1.00   5.42  400.0   0.00      0    120    329.9   0.00   0.00 0.3723   0.043   0.010   0.004   0.003   0.001   0.000   0.000   0.000   0.000   0.000      0      0      0       0       0   6.000  154.827
   15 114    38    37  18.122     1  0.480    181      0      0    215    316    316      0      0    0.0  0.000    135   0.00   0.00   1.00   0.00   0.00   0.00   0.00   1.00   5.32  400.0   0.00      0    135    327.7   0.00   0.00 0.3849   0.043   0.010   0.005   0.003   0.001   0.000   0.000   0.000   0.000   0.000      0      0      0       0       0   9.000  162.442
   15 115    39    38  18.590     1  0.546    203      0      0    235    358    358      0      0    0.0  0.000    155   0.00   0.00   1.00   0.00   0.00   0.00   0.00   1.00   5.25  400.0   0.00      0    155    325.1   0.00   0.00 0.4002   0.045   0.011   0.005   0.003   0.001   0.000   0.000   0.000   0.000   0.000      0      0      0       0       0  11.000  171.791
   15 116    40    39  19.228     1  0.639    235      0      0    269    420    420      0      0    0.0  0.000    184   0.00   0.00   1.00   0.00   0.00   0.00   0.00   1.00   5.00  400.0   0.00      0    184    321.7   0.00   0.00 0.4189   0.045   0.012   0.006   0.004   0.002   0.000   0.000   0.000   0.000   0.000      0      0      0       0       0  15.000  184.562
   15 117    41    40  19.826     1  0.726    266      0      0    321    477    477      0      0    0.0  0.000    211   0.00   0.00   1.00   0.04   0.00   0.00   0.00   1.00   5.09  400.0   0.00      0    211    318.7   0.00   0.00 0.4364   0.047   0.013   0.007   0.004   0.002   0.000   0.000   0.000   0.000   0.000      0      0      0       0       0  14.000  196.512
   15 118    42    41  20.169     1  0.771    282      0      0    347    507    507      0      0    0.0  0.000    225   0.00   0.00   1.00   0.00   0.00   0.00   0.00   1.00   5.12  400.0   0.00      0    225    317.0   0.00   0.00 0.4463   0.050   0.015   0.008   0.005   0.003   0.001   0.000   0.000   0.000   0.000      0      0      0       0       0   8.000  203.383
   15 119    43    42  20.450     1  0.803    293      0      0    363    529    529      0      0    0.0  0.000    236   0.00   0.00   1.00   0.00   0.00   0.00   0.00   1.00   5.09  400.0   0.00      0    236    315.7   0.00   0.00 0.4544   0.051   0.016   0.008   0.005   0.003   0.001   0.000   0.000   0.000   0.000      0      0      0       0       0   6.500  209.003
   15 120    44    43  20.885     1  0.871    314      0      0    403    572    572      0      0    0.0  0.000    257   0.00   0.00   1.00   0.00   0.00   0.00   0.00   1.00   5.06  400.0   0.00      0    257    313.8   0.00   0.00 0.4669   0.052   0.016   0.008   0.005   0.003   0.001   0.000   0.000   0.000   0.000      0      0      0       0       0  10.000  217.692
   15 121    45    44  21.234     1  0.919    330      0      0    430    603    603      0      0    0.0  0.000    273   0.00   0.00   1.00   0.00   0.00   0.00   0.00   1.00   5.06  400.0   0.00      0    273    312.3   0.00   0.00 0.4769   0.052   0.017   0.010   0.006   0.004   0.001   0.000   0.000   0.000   0.000      0      0      0       0       0   8.000  224.686
[...]
   15 185   109   108  69.131     4  1.026    648   2592      0    903   3831   3831      0      0    0.0  0.000    591   0.00   0.00   1.00   0.00   0.00   0.00   0.00   1.00   2.22  400.0   0.00      0    591    288.4   0.00   0.00 1.3492   0.032   0.016   0.013   0.012   0.011   0.009   0.007   0.006   0.004   0.004      0      0      0       0       0  22.875  179.142
   15 186   110   109  70.070     5  1.006    648   2190    486    904   3429   3915   7386   7386    6.6  0.124    591   0.00   0.00   1.18   0.00   0.00   0.00   0.00   1.00   1.78  400.0   0.00      0    591    288.4   0.00   0.00 1.3659   0.031   0.016   0.013   0.012   0.011   0.009   0.007   0.006   0.004   0.004      0      0      0       0       0  23.469    2.611
   15 187   111   110  70.665     5  1.005    648   2093    678    904   3332   4010   7386   7386    9.2  0.169    591   0.00   0.00   1.00   0.00   0.00   0.00   0.00   1.00   1.50  400.0   0.00      0    591    288.4   0.00   0.00 1.3819   0.031   0.016   0.013   0.012   0.011   0.009   0.007   0.006   0.004   0.004      0      0      0       0       0  22.318   24.929
   15 188   112   111  71.280     5  1.003    648   1958    896    902   3197   4093   7386   7386   12.1  0.219    591   0.00   0.00   1.10   0.00   0.00   0.00   0.00   1.00   1.21  400.0   0.00      0    591    288.4   0.00   0.00 1.3984   0.031   0.015   0.013   0.012   0.011   0.009   0.007   0.006   0.004   0.004      0      0      0       0       0  23.059   47.988
   15 189   113   112  71.733     5  0.999    648   1897   1045    898   3136   4181   7386   7386   14.2  0.250    591   0.00   0.00   1.00   0.00   0.00   0.00   0.00   1.00   1.05  400.0   0.00      0    591    288.4   0.00   0.00 1.4105   0.031   0.015   0.013   0.012   0.011   0.009   0.007   0.006   0.004   0.004      0      0      0       0       0  17.000   64.988
   15 190   114   113  72.093     5  0.995    648   1856   1176    894   3095   4272   7386   7386   15.9  0.275    591   0.00   0.00   1.00   0.00   0.00   0.00   0.00   1.00   0.92  400.0   0.00      0    591    288.4   0.00   0.00 1.4202   0.030   0.015   0.013   0.012   0.011   0.009   0.007   0.006   0.004   0.004      0      0      0       0       0  13.500   78.488
   15 191   115   114  72.480     5  0.991    648   1840   1320    891   3079   4400   7386   7386   17.9  0.300    591   0.00   0.00   1.00   0.00   0.00   0.00   0.00   1.00   0.82  400.0   0.00      0    591    288.4   0.00   0.00 1.4306   0.030   0.015   0.013   0.012   0.011   0.009   0.007   0.006   0.004   0.004      0      0      0       0       0  14.500   92.988
   15 192   116   115  72.957     5  0.987    648   1793   1479    886   3032   4510   7386   7386   20.0  0.328    591   0.00   0.00   1.00   0.00   0.00   0.00   0.00   1.00   0.76  400.0   0.00      0    591    288.4   0.00   0.00 1.4433   0.030   0.015   0.013   0.012   0.011   0.009   0.007   0.006   0.004   0.004      0      0      0       0       0  17.900  110.888
   15 193   117   116  73.489     5  0.979    648   1758   1617    881   2997   4614   7386   7386   21.9  0.350    591   0.00   0.00   1.00   0.00   0.00   0.00   0.00   1.00   0.71  400.0   0.00      0    591    288.4   0.00   0.00 1.4576   0.030   0.015   0.013   0.012   0.010   0.009   0.007   0.006   0.004   0.004      0      0      0       0       0  19.964  130.852
   15 194   118   117  73.969     5  0.970    648   1701   1737    873   2940   4677   7386   7386   23.5  0.371    591   0.00   0.00   1.00   0.00   0.00   0.00   0.00   1.00   0.67  400.0   0.00      0    591    288.4   0.00   0.00 1.4705   0.029   0.015   0.013   0.011   0.010   0.009   0.007   0.006   0.004   0.004      0      0      0       0       0  18.000  148.852
   15 195   119   118  74.503     5  0.961    648   1669   1851    866   2908   4759   7386   7386   25.1  0.389    591   0.00   0.00   1.00   0.00   0.00   0.00   0.00   1.00   0.64  400.0   0.00      0    591    288.4   0.00   0.00 1.4848   0.029   0.015   0.013   0.011   0.010   0.008   0.007   0.006   0.004   0.004      0      0      0       0       0  20.000  168.852
   15 196   120   119  75.075     5  0.948    648   1661   1956    858   2900   4856   7386   7386   26.5  0.403    591   0.00   0.00   1.00   0.00   0.00   0.00   0.00   1.00   0.62  400.0   0.00      0    591    288.4   0.00   0.00 1.5001   0.029   0.015   0.013   0.011   0.010   0.008   0.006   0.006   0.004   0.004      0      0      0       0       0  21.455  190.307
   15 197   121   120  75.643     5  0.934    648   1659   2051    850   2898   4949   7386   7386   27.8  0.414    591   0.00   0.00   1.00   0.00   0.00   0.00   0.00   1.00   0.60  400.0   0.00      0    591    288.4   0.00   0.00 1.5123   0.028   0.014   0.012   0.011   0.010   0.008   0.006   0.006   0.004   0.004      0      0      0       0       0  21.306  211.612
   15 198   122   121  76.247     5  0.918    648   1645   2139    841   2884   5023   7386   7386   29.0  0.426    591   0.00   0.00   1.06   0.00   0.00   0.00   0.00   1.00   0.58  400.0   0.00      0    591    288.4   0.00   0.00 1.5252   0.028   0.014   0.012   0.011   0.010   0.008   0.006   0.006   0.004   0.004      0      0      0       0       0  22.639  234.251
   15 199   123   122  76.812     5  0.898    648   1637   2217    833   2876   5092   7386   7386   30.0  0.435    591   0.00   0.00   1.00   0.00   0.00   0.00   0.00   1.00   0.57  400.0   0.00      0    591    288.4   0.00   0.00 1.5373   0.028   0.014   0.012   0.011   0.010   0.008   0.006   0.005   0.004   0.004      0      0      0       0       0  21.200  255.451
   15 200   124   123  77.394     5  0.878    648   1637   2285    825   2876   5161   7386   7386   30.9  0.443    591   0.00   0.00   1.00   0.00   0.00   0.00   0.00   1.00   0.55  400.0   0.00      0    591    288.4   0.00   0.00 1.5497   0.028   0.014   0.012   0.011   0.010   0.008   0.006   0.005   0.004   0.003      0      0      0       0       0  21.833  277.284
   15 201   125   124  78.002     5  0.857    648   1637   2357    817   2876   5233   7386   7386   31.9  0.450    591   0.00   0.00   1.00   0.00   0.00   0.00   0.00   1.00   0.54  400.0   0.00      0    591    288.4   0.00   0.00 1.5627   0.027   0.014   0.012   0.011   0.010   0.008   0.006   0.005   0.004   0.003      0      0      0       0       0  22.800  300.084
   15 202   126   125  78.612     5  0.832    648   1638   2429    808   2877   5307   7386   7386   32.9  0.458    591   0.00   0.00   1.02   0.00   0.00   0.00   0.00   1.00   0.53  400.0   0.00      0    591    288.4   0.00   0.00 1.5757   0.027   0.014   0.012   0.011   0.010   0.008   0.006   0.005   0.004   0.003      0      0      0       0       0  22.875  322.959
   15 203   127   126  79.221     5  0.805    648   1637   2494    800   2876   5370   7386   7386   33.8  0.464    591   0.00   0.00   1.48   0.00   0.00   0.00   0.00   1.00   0.51  400.0   0.00      0    591    288.4   0.00   0.00 1.5887   0.027   0.014   0.012   0.010   0.010   0.008   0.006   0.005   0.004   0.003      0      0      0       0       0  22.816  345.775
   15 204   128   127  79.781     5  0.764    648   1637   2547    792   2876   5423   7386   7386   34.5  0.470    591   0.00   0.00   1.00   0.00   0.00   0.00   0.00   1.00   0.50  400.0   0.00      0    591    288.4   0.00   0.00 1.6007   0.027   0.013   0.012   0.010   0.009   0.008   0.006   0.005   0.004   0.003      0      0      0       0       0  21.000  366.775
   15 205   129   128  80.346     5  0.736    648   1637   2612    784   2876   5488   7386   7386   35.4  0.476    591   0.00   0.00   1.00   0.00   0.00   0.00   0.00   1.00   0.48  400.0   0.00      0    591    288.4   0.00   0.00 1.6128   0.026   0.013   0.012   0.010   0.009   0.008   0.006   0.005   0.004   0.003      0      0      0       0       0  21.200  387.975
   15 206   130   129  80.839     5  0.707    648   1645   2674    777   2884   5558   7386   7386   36.2  0.481    591   0.00   0.00   1.00   0.00   0.00   0.00   0.00   1.00   0.47  400.0   0.00      0    591    288.4   0.00   0.00 1.6233   0.026   0.013   0.011   0.010   0.009   0.008   0.006   0.005   0.004   0.003      0      0      0       0       0  18.500  406.475
   15 207   131   130  81.253     5  0.680    648   1667   2731    769   2906   5636   7386   7386   37.0  0.484    591   0.00   0.01   1.00   0.00   0.00   0.00   0.00   1.00   0.46  400.0   0.00      0    591    288.4   0.00   0.00 1.6321   0.026   0.013   0.011   0.010   0.009   0.008   0.006   0.005   0.004   0.003      0      0      0       0       0  15.500  421.975
   15 208   132   131  81.719     5  0.656    648   1674   2784    762   2914   5697   7386   7386   37.7  0.489    591   0.00   0.00   1.00   0.00   0.00   0.00   0.00   1.00   0.45  400.0   0.00      0    591    288.4   0.00   0.00 1.6421   0.025   0.013   0.011   0.010   0.009   0.007   0.006   0.005   0.004   0.003      0      0      0       0       0  17.500  439.475
   15 209   133   132  82.173     5  0.629    648   1677   2835    754   2916   5751   7386   7386   38.4  0.493    591   0.00   0.00   1.00   0.00   0.00   0.00   0.00   1.00   0.44  400.0   0.00      0    591    288.4   0.00   0.00 1.6518   0.025   0.013   0.011   0.010   0.009   0.007   0.006   0.005   0.004   0.003      0      0      0       0       0  17.000  456.475
   15 210   134   133  82.559     5  0.601    648   1668   2886    747   2907   5793   7386   7386   39.1  0.498    591   0.00   0.00   1.00   0.00   0.00   0.00   0.00   1.00   0.43  400.0   0.00      0    591    288.4   0.00   0.00 1.6601   0.025   0.013   0.011   0.010   0.009   0.007   0.006   0.005   0.004   0.003      0      0      0       0       0  14.500  470.975
   15 211   135   134  82.933     5  0.577    648   1675   2936    740   2914   5850   7386   7386   39.8  0.502    591   0.00   0.01   1.00   0.00   0.00   0.00   0.00   1.00   0.42  400.0   0.00      0    591    288.4   0.00   0.00 1.6680   0.025   0.013   0.011   0.010   0.009   0.007   0.006   0.005   0.003   0.003      0      0      0       0       0  14.000  484.975
   15 212   136   135  83.359     5  0.552    648   1686   2986    733   2925   5910   7386   7386   40.4  0.505    591   0.00   0.04   1.00   0.00   0.00   0.00   0.00   1.00   0.41  400.0   0.00      0    591    288.4   0.00   0.00 1.6772   0.024   0.012   0.011   0.010   0.009   0.007   0.006   0.005   0.003   0.003      0      0      0       0       0  16.000  500.975
   15 213   137   136  83.799     5  0.524    648   1669   3033    726   2909   5942   7386   7386   41.1  0.511    591   0.00   0.08   1.00   0.00   0.00   0.00   0.00   1.00   0.40  400.0   0.00      0    591    288.4   0.00   0.00 1.6866   0.024   0.012   0.011   0.009   0.009   0.007   0.005   0.005   0.003   0.003      0      0      0       0       0  16.500  517.475
   15 214   138   137  84.293     5  0.493    648   1663   3084    719   2902   5986   7386   7386   41.8  0.515    591   0.00   0.09   1.00   0.00   0.00   0.00   0.00   1.00   0.39  400.0   0.00      0    591    288.4   0.00   0.00 1.6971   0.024   0.012   0.011   0.009   0.009   0.007   0.005   0.005   0.003   0.003      0      0      0       0       0  18.500  535.975
   15 215   139   138  84.810     5  0.458    648   1658   3136    712   2897   6033   7386   7386   42.5  0.520    591   0.00   0.10   1.00   0.00   0.00   0.00   0.00   1.00   0.38  400.0   0.00      0    591    288.4   0.00   0.00 1.7081   0.024   0.012   0.010   0.009   0.008   0.007   0.005   0.005   0.003   0.003      0      0      0       0       0  19.382  555.358
   15 216   140   139  85.365     5  0.419    648   1640   3188    705   2879   6067   7386   7386   43.2  0.526    591   0.00   0.12   1.00   0.00   0.00   0.00   0.00   1.00   0.37  400.0   0.00      0    591    288.4   0.00   0.00 1.7179   0.024   0.012   0.010   0.009   0.008   0.007   0.005   0.005   0.003   0.003      0      0      0       0       0  20.842  576.200
   15 217   141   140  85.918     5  0.376    648   1637   3227    698   2876   6103   7386   7386   43.7  0.529    591   0.00   0.13   1.00   0.00   0.00   0.00   0.00   1.00   0.36  400.0   0.00      0    591    288.4   0.00   0.00 1.7276   0.023   0.012   0.010   0.009   0.008   0.007   0.005   0.005   0.003   0.003      0      0      0       0       0  20.719  596.918
   15 218   142   141  86.498     5  0.332    648   1637   3254    691   2876   6130   7386   7386   44.1  0.531    591   0.00   0.14   1.62   0.00   0.00   0.00   0.00   1.00   0.35  400.0   0.00      0    591    288.4   0.00   0.00 1.7378   0.023   0.012   0.010   0.009   0.008   0.007   0.005   0.005   0.003   0.003      0      0      0       0       0  21.775  618.693
   15 219   143   142  87.100     5  0.254    648   1637   3273    684   2876   6149   7386   7386   44.3  0.532    591   0.00   0.16   2.24   0.03   0.00   0.00   0.00   1.00   0.33  400.0   0.00      0    591    288.4   0.00   0.00 1.7484   0.023   0.012   0.010   0.009   0.008   0.007   0.005   0.005   0.003   0.003      0      0      0       0       0  22.551  641.245
   15 220   144   143  87.708     5  0.138    648   1637   3283    678   2876   6159   7386   7386   44.4  0.533    591   0.00   0.16   2.05   0.11   0.00   0.00   0.00   1.00   0.32  400.0   0.00      0    591    288.4   0.00   0.00 1.7591   0.023   0.011   0.010   0.009   0.008   0.007   0.005   0.004   0.003   0.003      0      0      0       0       0  22.816  664.060
   15 221   145   144  88.323     5  0.027    648   1637   3285    671   2876   6161   7386   7386   44.5  0.533    591   0.00   0.16   1.84   0.16   0.00   0.00   0.00   1.00   0.32  400.0   0.00      0    591    288.4   0.00   0.00 1.7699   0.022   0.011   0.010   0.009   0.008   0.007   0.005   0.004   0.003   0.003      0      0      0       0       0  23.059  687.119
   15 222   146   145  88.933     5  0.000    648   1637   3285    664   2876   6161   7386   7386   44.5  0.533    591   0.00   0.16   1.00   0.03   0.00   0.00   0.00   1.00   0.32  400.0   0.00      0    591    288.4   0.00   0.00 1.7806   0.022   0.011   0.010   0.009   0.008   0.006   0.005   0.004   0.003   0.003      0      0      0       0       0  22.885  710.004
   15 223   147   146  89.538     5  0.000    648   1637   3285    657   2877   6162   7386   7386   44.5  0.533    591   0.00   0.15   1.30   0.00   0.00   0.00   0.00   1.00   0.32  400.0   0.00      0    591    288.4   0.00   0.00 1.7912   0.022   0.011   0.010   0.009   0.008   0.006   0.005   0.004   0.003   0.003      0      0      0       0       0  22.667  732.670
   15 224   148   147  90.000     6  0.000    648   1637   3285    651   2877   6162   7386   7386   44.5  0.533    591   0.00   0.15   1.90   0.00   0.00   0.00   0.00   1.00   0.32  400.0   0.00      0    591    288.4   0.00   0.00 1.7912   0.022   0.011   0.010   0.009   0.008   0.006   0.005   0.004   0.003   0.003      0      0      0       0       0  22.211    4.881
   15 225   149   148  90.000     7  0.000    648   1637   3285    651   2877   6162   7386   7386   44.5  0.533    591   0.00   0.15   1.90   0.00   0.00   0.00   0.00   1.00   0.32  400.0   0.00      0    591    288.4   0.00   0.00 1.7912   0.022   0.011   0.010   0.009   0.008   0.006   0.005   0.004   0.003   0.003      0      0      0       0       0  22.211    7.000
   15 226   150   149  90.000     7  0.000    648   1637   3285    651   2877   6162   7386   7386   44.5  0.533    591   0.00   0.15   1.90   0.00   0.00   0.00   0.00   1.00   0.32  400.0   0.00      0    591    288.4   0.00   0.00 1.7912   0.022   0.011   0.010   0.009   0.008   0.006   0.005   0.004   0.003   0.003      0      0      0       0       0  22.211    7.000
   15 227   151   150  90.000     7  0.000    648   1637   3285    651   2877   6162   7386   7386   44.5  0.533    591   0.00   0.15   1.90   0.00   0.00   0.00   0.00   1.00   0.32  400.0   0.00      0    591    288.4   0.00   0.00 1.7912   0.022   0.011   0.010   0.009   0.008   0.006   0.005   0.004   0.003   0.003      0      0      0       0       0  22.211    7.000
   15 228   152   151  90.000     7  0.000    648   1637   3285    651   2877   6162   7386   7386   44.5  0.533    591   0.00   0.15   1.90   0.00   0.00   0.00   0.00   1.00   0.32  400.0   0.00      0    591    288.4   0.00   0.00 1.7912   0.022   0.011   0.010   0.009   0.008   0.006   0.005   0.004   0.003   0.003      0      0      0       0       0  22.211    7.000
   15 229   153   152  90.000     7  0.000    648   1637   3285    651   2877   6162   7386   7386   44.5  0.533    591   0.00   0.15   1.90   0.00   0.00   0.00   0.00   1.00   0.32  400.0   0.00      0    591    288.4   0.00   0.00 1.7912   0.022   0.011   0.010   0.009   0.008   0.006   0.005   0.004   0.003   0.003      0      0      0       0       0  22.211    7.000
   15 230   154   153  90.000     7  0.000    648   1637   3285    651   2877   6162   7386   7386   44.5  0.533    591   0.00   0.15   1.90   0.00   0.00   0.00   0.00   1.00   0.32  400.0   0.00      0    591    288.4   0.00   0.00 1.7912   0.022   0.011   0.010   0.009   0.008   0.006   0.005   0.004   0.003   0.003      0      0      0       0       0  22.211    7.000
   15 231   155   154  90.000     7  0.000    648   1637   3285    651   2877   6162   7386   7386   44.5  0.533    591   0.00   0.15   1.90   0.00   0.00   0.00   0.00   1.00   0.32  400.0   0.00      0    591    288.4   0.00   0.00 1.7912   0.022   0.011   0.010   0.009   0.008   0.006   0.005   0.004   0.003   0.003      0      0      0       0       0  22.211    7.000
   15 232   156   155  90.000     7  0.000    648   1637   3285    651   2877   6162   7386   7386   44.5  0.533    591   0.00   0.15   1.90   0.00   0.00   0.00   0.00   1.00   0.32  400.0   0.00      0    591    288.4   0.00   0.00 1.7912   0.022   0.011   0.010   0.009   0.008   0.006   0.005   0.004   0.003   0.003      0      0      0       0       0  22.211    7.000
   15 233   157   156  90.000     7  0.000    648   1637   3285    651   2877   6162   7386   7386   44.5  0.533    591   0.00   0.15   1.90   0.00   0.00   0.00   0.00   1.00   0.32  400.0   0.00      0    591    288.4   0.00   0.00 1.7912   0.022   0.011   0.010   0.009   0.008   0.006   0.005   0.004   0.003   0.003      0      0      0       0       0  22.211    7.000
   15 234   158   157  90.000     7  0.000    648   1637   3285    651   2877   6162   7386   7386   44.5  0.533    591   0.00   0.15   1.90   0.00   0.00   0.00   0.00   1.00   0.32  400.0   0.00      0    591    288.4   0.00   0.00 1.7912   0.022   0.011   0.010   0.009   0.008   0.006   0.005   0.004   0.003   0.003      0      0      0       0       0  22.211    7.000
   15 235   159   158  90.000     7  0.000    648   1637   3285    651   2877   6162   7386   7386   44.5  0.533    591   0.00   0.15   1.90   0.00   0.00   0.00   0.00   1.00   0.32  400.0   0.00      0    591    288.4   0.00   0.00 1.7912   0.022   0.011   0.010   0.009   0.008   0.006   0.005   0.004   0.003   0.003      0      0      0       0       0  22.211    7.000
   15 236   160   159  90.000     7  0.000    648   1637   3285    651   2877   6162   7386   7386   44.5  0.533    591   0.00   0.15   1.90   0.00   0.00   0.00   0.00   1.00   0.32  400.0   0.00      0    591    288.4   0.00   0.00 1.7912   0.022   0.011   0.010   0.009   0.008   0.006   0.005   0.004   0.003   0.003      0      0      0       0       0  22.211    7.000
   15 237   161   160  90.000     7  0.000    648   1637   3285    651   2877   6162   7386   7386   44.5  0.533    591   0.00   0.15   1.90   0.00   0.00   0.00   0.00   1.00   0.32  400.0   0.00      0    591    288.4   0.00   0.00 1.7912   0.022   0.011   0.010   0.009   0.008   0.006   0.005   0.004   0.003   0.003      0      0      0       0       0  22.211    7.000
