*PLANT N OUTPUT FILE

*DSSAT Cropping System Model Ver. 4.8.5.000 -release  FEB 02, 2026 11:46:55

*RUN   1        : 1                         WHAPS048 TUDU1501    1
 MODEL          : WHAPS048 - Wheat
 EXPERIMENT     : TUDU1501 WH
 DATA PATH      :
 TREATMENT  1   : 1                         WHAPS048
  
@YEAR DOY   DAS   DAP   CNAD   GNAD   GN%D   VN%D   NUPC   LNAD   SNAD   LN%D   SN%D   RN%D   SNN0C   SNN1C NFact1 NFact2 NFact3 NFact4  RootN lfshthN
   15 077     1     0    0.0    0.0   0.00   0.00    0.0    0.0    0.0    0.0   0.00   0.00    0.00    0.00   0.00   0.00   0.00   0.00   0.00   0.00
   15 078     2     1    0.0    0.0   0.00   0.00    0.0    0.0    0.0    0.0   0.00   0.00    0.00    0.00   0.00   0.00   0.00   0.00   0.00   0.00
   15 079     3     2    0.0    0.0   0.00   0.00    0.0    0.0    0.0    0.0   0.00   0.00    0.00    0.00   0.00   0.00   0.00   0.00   0.00   0.00
   15 080     4     3    0.0    0.0   0.00   0.00    0.0    0.0    0.0    0.0   0.00   0.00    0.00    0.00   0.00   0.00   0.00   0.00   0.00   0.00
   15 081     5     4    0.0    0.0   0.00   0.00    0.0    0.0    0.0    0.0   0.00   0.00    0.00    0.00   0.00   0.00   0.00   0.00   0.00   0.00
   15 082     6     5    0.0    0.0   0.00   0.00    0.0    0.0    0.0    0.0   0.00   0.00    0.00    0.00   0.00   0.00   0.00   0.00   0.00   0.00
   15 083     7     6    0.0    0.0   0.00   0.00    0.0    0.0    0.0    0.0   0.00   0.00    0.00    0.00   0.00   0.00   0.00   0.00   0.00   0.00
   15 084     8     7    0.0    0.0   0.00   0.00    0.0    0.0    0.0    0.0   0.00   0.00    0.00    0.00   0.00   0.00   0.00   0.00   0.00   0.00
   15 085     9     8    0.0    0.0   0.00   0.00    0.0    0.0    0.0    0.0   0.00   0.00    0.00    0.00   0.00   0.00   0.00   0.00   0.00   0.00
   15 086    10     9    0.0    0.0   0.00   0.00    0.0    0.0    0.0    0.0   0.00   0.00    0.00    0.00   0.00   0.00   0.00   0.00   0.00   0.00
   15 087    11    10    0.0    0.0   0.00   0.00    0.0    0.0    0.0    0.0   0.00   0.00    0.00    0.00   0.00   0.00   0.00   0.00   0.00   0.00
   15 088    12    11    0.0    0.0   0.00   0.00    0.0    0.0    0.0    0.0   0.00   0.00    0.00    0.00   0.00   0.00   0.00   0.00   0.00   0.00
   15 089    13    12    1.0    0.0   0.00   9.37    0.2    0.6    0.0    5.8   6.34   4.42    0.00    0.00   0.00   0.00   0.00   0.00   1.07   0.41
   15 090    14    13    1.1    0.0   0.00   8.08    0.2    0.6    0.0    5.4   6.34   4.32    0.00    0.00   0.00   0.00   0.00   0.00   1.06   0.41
   15 091    15    14    1.2    0.0   0.00   8.40    0.3    0.7    0.0    6.1   6.34   4.20    0.00    0.00   0.00   0.00   0.00   0.00   1.05   0.41
   15 092    16    15    1.2    0.0   0.00   8.08    0.4    0.8    0.0    6.1   6.34   4.11    0.00    0.00   0.00   0.00   0.00   0.00   1.04   0.41
   15 093    17    16    1.2    0.0   0.00   7.19    0.4    0.8    0.0    5.7   6.34   3.92    0.00    0.00   0.00   0.00   0.00   0.00   1.03   0.41
   15 094    18    17    1.3    0.0   0.00   7.16    0.4    0.9    0.0    6.0   6.34   3.84    0.00    0.00   0.00   0.00   0.00   0.00   1.02   0.41
   15 095    19    18    1.3    0.0   0.00   7.02    0.5    0.9    0.0    6.0   6.34   3.73    0.00    0.00   0.00   0.00   0.00   0.00   1.01   0.41
   15 096    20    19    1.4    0.0   0.00   6.83    0.5    0.9    0.0    6.0   6.34   3.62    0.00    0.00   0.00   0.00   0.00   0.00   1.00   0.41
   15 097    21    20    1.4    0.0   0.00   6.37    0.5    0.9    0.0    5.8   6.34   3.40    0.00    0.00   0.00   0.00   0.00   0.00   0.99   0.41
   15 098    22    21    1.4    0.0   0.00   5.31    0.6    1.0    0.0    5.1   6.34   3.20    0.00    0.00   0.00   0.00   0.00   0.00   0.98   0.41
   15 099    23    22    1.6    0.0   0.00   4.37    0.8    1.2    0.0    4.4   6.34   2.94    0.00    0.00   0.00   0.00   0.00   0.00   0.97   0.44
   15 100    24    23    2.3    0.0   0.00   4.95    1.4    1.6    0.0    5.1   6.34   2.71    0.00    0.00   0.20   0.47   0.72   0.72   0.96   0.62
   15 101    25    24    2.8    0.0   0.00   4.79    1.9    1.9    0.0    4.8   6.34   2.48    0.00    0.00   0.00   0.29   0.50   0.50   0.95   0.82
   15 102    26    25    3.4    0.0   0.00   4.84    2.6    2.4    0.0    4.9   6.34   2.24    0.00    0.00   0.00   0.33   0.55   0.55   0.94   1.02
   15 103    27    26    4.2    0.0   0.00   4.84    3.3    2.8    0.0    4.9   6.34   2.00    0.00    0.00   0.00   0.30   0.51   0.51   0.93   1.29
   15 104    28    27    4.6    0.0   0.00   4.39    3.8    3.1    0.0    4.5   6.34   1.78    0.00    0.00   0.00   0.29   0.49   0.49   0.95   1.49
   15 105    29    28    4.9    0.0   0.00   3.88    4.1    3.2    0.0    4.1   6.34   1.55    0.00    0.00   0.11   0.41   0.65   0.65   0.97   1.63
   15 106    30    29    5.2    0.0   0.00   3.63    4.4    3.4    0.0    3.8   6.34   1.47    0.00    0.00   0.32   0.55   0.79   0.79   1.00   1.77
   15 107    31    30    8.7    0.0   0.00   5.61    8.2    5.3    0.0    5.5   6.34   1.95    0.00    0.00   0.42   0.61   0.85   0.85   1.39   3.33
   15 108    32    31    9.3    0.0   0.00   5.70    9.1    5.7    0.0    5.7   6.34   2.01    0.00    0.00   0.00   0.00   0.00   0.00   1.59   3.60
   15 109    33    32   10.0    0.0   0.00   5.65   10.0    6.0    0.0    5.6   6.34   1.99    0.00    0.00   0.00   0.00   0.00   0.00   1.81   3.92
   15 110    34    33   11.1    0.0   0.00   5.57   11.5    6.6    0.0    5.5   6.34   1.96    0.00    0.00   0.00   0.00   0.00   0.00   2.17   4.45
   15 111    35    34   12.7    0.0   0.00   5.48   13.7    7.4    0.0    5.4   6.34   1.94    0.00    0.00   0.00   0.00   0.00   0.00   2.74   5.26
   15 112    36    35   14.6    0.0   0.00   5.42   16.3    8.4    0.0    5.4   6.34   1.93    0.00    0.00   0.00   0.00   0.00   0.00   3.39   6.15
   15 113    37    36   15.5    0.0   0.00   5.45   17.5    8.9    0.0    5.4   6.34   1.95    0.00    0.00   0.00   0.00   0.00   0.00   3.66   6.56
   15 114    38    37   16.9    0.0   0.00   5.35   19.4    9.6    0.0    5.3   6.34   1.93    0.00    0.00   0.00   0.00   0.00   0.00   4.16   7.25
   15 115    39    38   18.8    0.0   0.00   5.26   21.8   10.6    0.0    5.2   6.34   1.91    0.00    0.00   0.00   0.00   0.00   0.00   4.49   8.20
   15 116    40    39   20.8    0.0   0.00   4.97   24.2   11.6    0.0    4.9   6.34   1.83    0.00    0.00   0.00   0.00   0.00   0.00   4.93   9.16
   15 117    41    40   24.3    0.0   0.00   5.12   29.0   13.5    0.0    5.1   6.34   1.91    0.00    0.00   0.00   0.06   0.11   0.11   6.11  10.84
   15 118    42    41   26.0    0.0   0.00   5.14   31.3   14.4    0.0    5.1   6.34   1.94    0.00    0.00   0.00   0.00   0.00   0.00   6.68  11.61
   15 119    43    42   26.9    0.0   0.00   5.10   32.6   14.9    0.0    5.1   6.34   1.92    0.00    0.00   0.00   0.00   0.00   0.00   6.97  12.02
   15 120    44    43   28.9    0.0   0.00   5.06   35.4   15.9    0.0    5.1   6.34   1.92    0.00    0.00   0.00   0.00   0.00   0.00   7.71  13.00
   15 121    45    44   30.5    0.0   0.00   5.06   37.6   16.6    0.0    5.1   6.34   1.94    0.00    0.00   0.00   0.00   0.00   0.00   8.30  13.79
   15 122    46    45   32.3    0.0   0.00   4.99   40.2   17.5    0.0    5.0   6.34   1.92    0.00    0.00   0.00   0.00   0.00   0.00   9.00  14.71
   15 123    47    46   33.5    0.0   0.00   4.73   41.7   18.1    0.0    4.7   6.34   1.85    0.00    0.00   0.00   0.00   0.00   0.00   9.14  15.32
   15 124    48    47   35.3    0.0   0.00   4.47   44.1   19.0    0.0    4.5   6.34   1.74    0.00    0.00   0.00   0.03   0.06   0.06   9.61  16.25
   15 125    49    48   37.1    0.0   0.00   4.24   46.3   19.9    0.0    4.3   6.34   1.70    0.00    0.00   0.00   0.10   0.19   0.19   9.97  17.15
   15 126    50    49   37.9    0.0   0.00   4.10   47.3   20.3    0.0    4.1   6.34   1.61    0.00    0.00   0.00   0.18   0.33   0.33  10.12  17.54
   15 127    51    50   39.1    0.0   0.00   3.99   49.0   20.9    0.0    4.0   6.34   1.54    0.00    0.00   0.00   0.21   0.38   0.38  10.46  18.15
   15 128    52    51   40.4    0.0   0.00   3.88   50.9   21.6    0.0    3.9   6.34   1.48    0.00    0.00   0.00   0.24   0.42   0.42  10.91  18.84
   15 129    53    52   41.7    0.0   0.00   3.80   52.7   22.2    0.0    3.8   6.34   1.45    0.00    0.00   0.00   0.27   0.46   0.46  11.36  19.50
   15 130    54    53   42.9    0.0   0.00   3.72   54.5   22.8    0.0    3.8   6.34   1.42    0.00    0.00   0.00   0.28   0.49   0.49  11.78  20.11
   15 131    55    54   43.9    0.0   0.00   3.63   56.0   23.3    0.0    3.7   6.34   1.38    0.00    0.00   0.00   0.30   0.51   0.51  12.13  20.62
   15 132    56    55   44.8    0.0   0.00   3.49   57.2   23.7    0.0    3.5   6.34   1.32    0.00    0.00   0.00   0.31   0.53   0.53  12.42  21.05
   15 133    57    56   45.6    0.0   0.00   3.36   58.4   24.1    0.0    3.4   6.34   1.26    0.00    0.00   0.03   0.35   0.58   0.58  12.69  21.45
   15 134    58    57   46.3    0.0   0.00   3.28   59.6   24.5    0.0    3.3   6.34   1.23    0.00    0.00   0.09   0.39   0.63   0.63  12.96  21.83
   15 135    59    58   47.1    0.0   0.00   3.16   60.7   24.8    0.1    3.2   0.43   1.23    0.00    0.00   0.13   0.42   0.66   0.66  13.16  22.21
   15 136    60    59   47.8    0.0   0.00   2.90   61.7   25.2    0.1    3.0   0.29   1.20    0.00    0.00   0.19   0.46   0.71   0.71  13.29  22.55
   15 137    61    60   48.5    0.0   0.00   2.77   62.6   25.5    0.2    2.9   0.32   1.18    0.00    0.00   0.34   0.56   0.81   0.81  13.39  22.86
   15 138    62    61   49.2    0.0   0.00   2.62   63.4   25.7    0.3    2.8   0.33   1.15    0.00    0.00   0.41   0.61   0.85   0.85  13.46  23.15
   15 139    63    62   49.8    0.0   0.00   2.58   64.3   26.0    0.4    2.7   0.38   1.15    0.00    0.00   0.50   0.67   0.89   0.89  13.52  23.43
   15 140    64    63   50.4    0.0   0.00   2.55   65.0   26.2    0.4    2.7   0.43   1.15    0.00    0.00   0.52   0.68   0.90   0.90  13.57  23.68
   15 141    65    64   50.9    0.0   0.00   2.51   65.8   26.5    0.5    2.7   0.45   1.15    0.00    0.00   0.52   0.68   0.90   0.90  13.60  23.91
   15 142    66    65   51.5    0.0   0.00   2.44   66.5   26.7    0.6    2.6   0.46   1.13    0.00    0.00   0.54   0.69   0.90   0.90  13.64  24.16
   15 143    67    66   52.0    0.0   0.00   2.40   67.2   26.9    0.7    2.6   0.47   1.12    0.00    0.00   0.58   0.72   0.92   0.92  13.66  24.38
   15 144    68    67   52.5    0.0   0.00   2.36   67.8   27.1    0.8    2.6   0.49   1.12    0.00    0.00   0.59   0.73   0.93   0.93  13.67  24.58
   15 145    69    68   53.0    0.0   0.00   2.32   68.4   27.3    0.9    2.5   0.49   1.11    0.00    0.00   0.60   0.73   0.93   0.93  13.66  24.76
   15 146    70    69   53.4    0.0   0.00   2.28   69.0   27.5    1.0    2.5   0.50   1.10    0.00    0.00   0.62   0.74   0.93   0.93  13.66  24.93
   15 147    71    70   53.8    0.0   0.00   2.25   69.6   27.6    1.1    2.5   0.50   1.09    0.00    0.00   0.63   0.75   0.94   0.94  13.65  25.10
   15 148    72    71   54.3    0.0   0.00   2.19   70.1   27.8    1.2    2.4   0.49   1.07    0.00    0.00   0.64   0.76   0.94   0.94  13.64  25.26
   15 149    73    72   54.7    0.0   0.00   2.15   70.7   27.9    1.3    2.4   0.49   1.06    0.00    0.00   0.67   0.78   0.95   0.95  13.64  25.43
   15 150    74    73   55.1    0.0   0.00   2.12   71.3   28.1    1.5    2.4   0.50   1.06    0.00    0.00   0.68   0.79   0.95   0.95  13.64  25.59
   15 151    75    74   55.6    0.0   0.00   2.09   71.8   28.2    1.6    2.4   0.50   1.05    0.00    0.00   0.68   0.79   0.95   0.95  13.64  25.75
   15 152    76    75   60.1    0.0   0.00   2.20   77.8   29.7    3.0    2.4   0.88   1.14    0.00    0.00   0.68   0.79   0.95   0.95  14.98  27.33
   15 153    77    76   64.6    0.0   0.00   2.28   83.8   31.2    4.6    2.5   1.17   1.22    0.00    0.00   0.50   0.67   0.89   0.89  16.34  28.85
   15 154    78    77   69.0    0.0   0.00   2.32   89.8   32.5    6.3    2.5   1.37   1.29    0.00    0.00   0.36   0.57   0.82   0.82  17.70  30.27
   15 155    79    78   71.7    0.0   0.00   2.28   93.5   33.2    7.4    2.5   1.36   1.30    0.00    0.00   0.25   0.50   0.75   0.75  18.46  31.09
   15 156    80    79   73.2    0.0   0.00   2.21   95.5   33.6    8.1    2.4   1.28   1.28    0.00    0.00   0.23   0.49   0.74   0.74  18.79  31.49
   15 157    81    80   77.6    0.0   0.00   2.24  101.5   34.6   10.4    2.5   1.46   1.35    0.00    0.00   0.26   0.50   0.75   0.75  20.20  32.59
   15 158    82    81   80.5    0.0   0.00   2.20  105.5   35.2   12.0    2.4   1.47   1.37    0.00    0.00   0.13   0.42   0.67   0.67  21.11  33.26
   15 159    83    82   84.5    0.0   0.00   2.25  111.1   35.9   14.5    2.4   1.65   1.44    0.00    0.00   0.12   0.41   0.65   0.65  22.51  34.08
   15 160    84    83   88.2    0.0   0.00   2.30  116.5   36.4   17.2    2.5   1.79   1.52    0.00    0.00   0.00   0.33   0.55   0.55  23.83  34.63
   15 161    85    84   89.2    0.0   0.00   2.25  117.9   36.4   18.2    2.5   1.67   1.53    0.00    0.00   0.00   0.21   0.37   0.37  24.03  34.67
   15 162    86    85   90.0    0.0   0.00   2.17  119.0   36.4   19.0    2.5   1.50   1.51    0.00    0.00   0.00   0.16   0.30   0.30  24.11  34.67
   15 163    87    86   90.8    0.0   0.00   2.07  120.0   36.4   19.8    2.5   1.32   1.49    0.00    0.00   0.00   0.14   0.27   0.27  24.13  34.67
   15 164    88    87   91.6    0.0   0.00   2.00  121.1   36.4   20.6    2.5   1.21   1.47    0.00    0.00   0.00   0.16   0.29   0.29  24.14  34.67
   15 165    89    88   92.4    0.0   0.00   1.93  122.2   36.4   21.4    2.5   1.12   1.44    0.00    0.00   0.00   0.17   0.30   0.30  24.13  34.67
   15 166    90    89   93.3    0.0   0.00   1.90  123.2   36.4   22.2    2.5   1.09   1.44    0.00    0.00   0.00   0.20   0.37   0.37  24.14  34.67
   15 167    91    90   94.3    0.0   0.00   1.85  124.5   36.4   23.2    2.5   1.04   1.42    0.00    0.00   0.00   0.18   0.32   0.32  24.18  34.67
   15 168    92    91   95.4    0.0   0.00   1.79  125.9   36.4   24.3    2.5   1.00   1.40    0.00    0.00   0.00   0.18   0.34   0.34  24.24  34.67
   15 169    93    92   96.4    0.0   0.00   1.78  127.2   36.4   25.3    2.5   0.99   1.40    0.00    0.00   0.00   0.20   0.37   0.37  24.27  34.67
   15 170    94    93   97.3    0.0   0.00   1.74  128.4   36.4   26.3    2.5   0.97   1.39    0.00    0.00   0.00   0.17   0.31   0.31  24.29  34.67
   15 171    95    94   98.2    0.0   0.00   1.71  129.6   36.4   27.2    2.5   0.95   1.38    0.00    0.00   0.00   0.17   0.31   0.31  24.29  34.67
   15 172    96    95   99.1    0.0   0.00   1.68  130.7   36.4   28.0    2.5   0.93   1.37    0.00    0.00   0.00   0.15   0.28   0.28  24.28  34.67
   15 173    97    96   99.9    0.0   0.00   1.65  131.7   36.4   28.8    2.5   0.90   1.35    0.00    0.00   0.00   0.12   0.23   0.23  24.25  34.67
   15 174    98    97  100.6    0.0   0.00   1.61  132.7   36.4   29.6    2.5   0.88   1.34    0.00    0.00   0.00   0.12   0.22   0.22  24.22  34.67
   15 175    99    98  101.4    0.0   0.00   1.57  133.7   36.4   30.4    2.5   0.85   1.32    0.00    0.00   0.00   0.11   0.21   0.21  24.20  34.67
   15 176   100    99  102.2    0.0   0.00   1.53  134.7   36.4   31.2    2.5   0.82   1.31    0.00    0.00   0.00   0.11   0.21   0.21  24.17  34.67
   15 177   101   100  103.0    0.0   0.00   1.49  135.6   36.4   31.9    2.5   0.79   1.30    0.00    0.00   0.00   0.08   0.16   0.16  24.12  34.67
   15 178   102   101  103.6    0.0   0.00   1.47  136.5   36.4   32.6    2.5   0.78   1.30    0.00    0.00   0.00   0.00   0.00   0.00  24.07  34.67
   15 179   103   102  104.2    0.0   0.00   1.43  137.3   36.4   33.2    2.5   0.75   1.29    0.00    0.00   0.00   0.00   0.00   0.00  24.01  34.67
   15 180   104   103  104.8    0.0   0.00   1.40  138.0   36.4   33.7    2.5   0.73   1.29    0.00    0.00   0.00   0.00   0.00   0.00  23.96  34.67
   15 181   105   104  105.3    0.0   0.00   1.36  138.7   36.4   34.3    2.5   0.71   1.28    0.00    0.00   0.00   0.00   0.00   0.00  23.90  34.67
   15 182   106   105  105.8    0.0   0.00   1.33  139.4   36.4   34.7    2.5   0.68   1.27    0.00    0.00   0.00   0.00   0.00   0.00  23.85  34.67
   15 183   107   106  106.3    0.0   0.00   1.30  140.1   36.4   35.2    2.5   0.67   1.27    0.00    0.00   0.00   0.00   0.00   0.00  23.83  34.67
   15 184   108   107  106.6    0.0   0.00   1.28  140.6   36.4   35.6    2.5   0.65   1.27    0.00    0.00   0.00   0.00   0.00   0.00  23.81  34.67
   15 185   109   108  107.0    0.0   0.00   1.25  141.2   36.4   35.9    2.5   0.64   1.27    0.00    0.00   0.00   0.00   0.00   0.00  23.80  34.67
   15 186   110   109  107.1   23.4   2.21   1.10  141.7   31.5   35.4    2.1   0.75   1.28    0.00    0.00   0.00   0.00   0.00   0.00  23.94  16.81
   15 187   111   110  107.2   28.5   1.93   1.07  142.1   28.0   34.9    1.9   0.78   1.30    0.00    0.00   0.00   0.00   0.00   0.00  24.20  15.65
   15 188   112   111  107.2   34.9   1.79   1.02  146.1   24.1   33.9    1.6   0.81   1.50    0.00    0.00   0.00   0.00   0.00   0.00  27.94  14.29
   15 189   113   112  107.2   38.9   1.71   0.99  150.1   21.9   32.9    1.5   0.82   1.72    0.00    0.00   0.00   0.00   0.00   0.00  31.62  13.52
   15 190   114   113  107.2   42.4   1.65   0.95  150.1   20.0   31.8    1.4   0.82   1.71    0.00    0.00   0.00   0.00   0.00   0.00  31.32  12.86
   15 191   115   114  107.2   46.3   1.63   0.90  150.1   18.1   30.6    1.2   0.79   1.71    0.00    0.00   0.00   0.00   0.00   0.00  31.01  12.17
   15 192   116   115  107.2   51.0   1.68   0.83  150.1   15.8   29.0    1.1   0.75   1.71    0.00    0.00   0.00   0.00   0.00   0.00  30.70  11.33
   15 193   117   116  107.2   55.7   1.72   0.76  150.1   13.6   27.3    0.9   0.70   1.71    0.00    0.00   0.00   0.00   0.00   0.00  30.39  10.46
   15 194   118   117  107.5   59.8   1.78   0.71  150.5   12.0   26.0    0.8   0.67   1.71    0.00    0.00   0.00   0.00   0.00   0.00  30.03   9.79
   15 195   119   118  109.4   64.4   1.84   0.67  151.3   10.8   24.9    0.7   0.64   1.65    0.00    0.00   0.00   0.00   0.00   0.00  28.67   9.29
   15 196   120   119  111.7   68.7   1.86   0.64  151.8   10.0   24.1    0.7   0.62   1.55    0.00    0.00   0.00   0.00   0.00   0.00  26.64   8.90
   15 197   121   120  113.3   72.0   1.87   0.61  152.1    9.4   23.3    0.6   0.60   1.48    0.00    0.00   0.00   0.00   0.00   0.00  25.16   8.58
   15 198   122   121  114.5   74.5   1.87   0.59  152.3    9.0   22.7    0.6   0.58   1.43    0.00    0.00   0.00   0.00   0.00   0.00  24.08   8.31
   15 199   123   122  115.3   76.6   1.86   0.57  152.5    8.6   22.1    0.6   0.57   1.39    0.00    0.00   0.00   0.00   0.00   0.00  23.27   8.07
   15 200   124   123  116.0   78.4   1.85   0.56  152.6    8.3   21.5    0.6   0.55   1.37    0.00    0.00   0.00   0.00   0.00   0.00  22.65   7.84
   15 201   125   124  116.6   80.0   1.83   0.54  152.6    8.0   20.9    0.5   0.54   1.35    0.00    0.00   0.00   0.00   0.00   0.00  22.15   7.63
   15 202   126   125  117.0   81.4   1.81   0.52  152.6    7.8   20.4    0.5   0.52   1.34    0.00    0.00   0.00   0.00   0.00   0.00  21.74   7.42
   15 203   127   126  117.4   82.7   1.80   0.51  152.8    7.5   19.9    0.5   0.51   1.33    0.00    0.00   0.00   0.00   0.00   0.00  21.38   7.22
   15 204   128   127  117.7   84.0   1.79   0.50  152.8    7.3   19.4    0.5   0.50   1.33    0.00    0.00   0.00   0.00   0.00   0.00  21.06   7.03
   15 205   129   128  118.0   85.2   1.77   0.48  152.8    7.1   18.9    0.5   0.48   1.32    0.00    0.00   0.00   0.00   0.00   0.00  20.78   6.84
   15 206   130   129  118.3   86.3   1.76   0.47  152.8    6.9   18.4    0.5   0.47   1.32    0.00    0.00   0.00   0.00   0.00   0.00  20.51   6.66
   15 207   131   130  118.5   87.2   1.76   0.46  152.8    6.8   18.0    0.5   0.45   1.31    0.00    0.00   0.00   0.00   0.00   0.00  20.26   6.49
   15 208   132   131  118.8   88.1   1.75   0.44  153.1    6.6   17.8    0.4   0.44   1.33    0.00    0.00   0.00   0.00   0.00   0.00  20.34   6.34
   15 209   133   132  119.1   89.0   1.74   0.43  153.2    6.4   17.5    0.4   0.43   1.33    0.00    0.00   0.00   0.00   0.00   0.00  20.09   6.18
   15 210   134   133  119.4   89.9   1.73   0.42  153.3    6.3   17.2    0.4   0.42   1.33    0.00    0.00   0.00   0.00   0.00   0.00  19.89   6.04
   15 211   135   134  119.7   90.8   1.73   0.41  153.3    6.1   16.9    0.4   0.41   1.32    0.00    0.00   0.00   0.00   0.00   0.00  19.61   5.90
   15 212   136   135  120.0   91.6   1.72   0.40  153.3    6.0   16.6    0.4   0.40   1.31    0.00    0.00   0.00   0.00   0.00   0.00  19.37   5.77
   15 213   137   136  120.3   92.4   1.72   0.40  153.3    5.9   16.4    0.4   0.39   1.31    0.00    0.00   0.00   0.00   0.00   0.00  19.17   5.63
   15 214   138   137  120.5   93.3   1.71   0.39  153.3    5.7   16.0    0.4   0.38   1.31    0.00    0.00   0.00   0.00   0.00   0.00  18.99   5.49
   15 215   139   138  120.8   94.2   1.70   0.38  153.3    5.6   15.7    0.4   0.37   1.31    0.00    0.00   0.00   0.00   0.00   0.00  18.81   5.34
   15 216   140   139  121.0   95.2   1.70   0.37  153.3    5.4   15.3    0.4   0.37   1.31    0.00    0.00   0.00   0.00   0.00   0.00  18.66   5.18
   15 217   141   140  121.3   96.2   1.69   0.36  153.3    5.2   14.8    0.4   0.36   1.31    0.00    0.00   0.00   0.00   0.00   0.00  18.50   5.02
   15 218   142   141  121.5   97.3   1.68   0.35  153.3    5.0   14.3    0.3   0.35   1.31    0.00    0.00   0.00   0.03   0.07   0.07  18.35   4.85
   15 219   143   142  121.8   98.5   1.67   0.34  153.3    4.9   13.8    0.3   0.34   1.31    0.00    0.00   0.00   0.05   0.11   0.11  18.19   4.68
   15 220   144   143  122.1   99.7   1.67   0.33  153.3    4.7   13.2    0.3   0.33   1.31    0.00    0.00   0.00   0.07   0.14   0.14  18.03   4.51
   15 221   145   144  122.1   99.7   1.67   0.33  153.3    4.7   13.2    0.3   0.33   1.33    0.00    0.00   0.00   0.09   0.17   0.17  18.13   4.51
   15 222   146   145  122.1   99.7   1.67   0.33  153.3    4.7   13.2    0.3   0.33   1.36    0.00    0.00   0.00   0.00   0.00   0.00  18.24   4.52
   15 223   147   146  122.1   99.7   1.67   0.33  153.3    4.7   13.2    0.3   0.33   1.38    0.00    0.00   0.00   0.00   0.00   0.00  18.35   4.52
   15 224   148   147  122.1   99.7   1.67   0.33  153.3    4.7   13.2    0.3   0.33   1.38    0.00    0.00   0.00   0.00   0.00   0.00  18.17   4.52
   15 225   149   148  122.1   99.7   1.67   0.33  153.3    4.7   13.2    0.3   0.33   1.38    0.00    0.00   0.00   0.00   0.00   0.00  18.17   4.52
   15 226   150   149  122.1   99.7   1.67   0.33  153.3    4.7   13.2    0.3   0.33   1.38    0.00    0.00   0.00   0.00   0.00   0.00  18.17   4.52
   15 227   151   150  122.1   99.7   1.67   0.33  153.3    4.7   13.2    0.3   0.33   1.38    0.00    0.00   0.00   0.00   0.00   0.00  18.17   4.52
   15 228   152   151  122.1   99.7   1.67   0.33  153.3    4.7   13.2    0.3   0.33   1.38    0.00    0.00   0.00   0.00   0.00   0.00  18.17   4.52
   15 229   153   152  122.1   99.7   1.67   0.33  153.3    4.7   13.2    0.3   0.33   1.38    0.00    0.00   0.00   0.00   0.00   0.00  18.17   4.52
   15 230   154   153  122.1   99.7   1.67   0.33  153.3    4.7   13.2    0.3   0.33   1.38    0.00    0.00   0.00   0.00   0.00   0.00  18.17   4.52
   15 231   155   154  122.1   99.7   1.67   0.33  153.3    4.7   13.2    0.3   0.33   1.38    0.00    0.00   0.00   0.00   0.00   0.00  18.17   4.52
   15 232   156   155  122.1   99.7   1.67   0.33  153.3    4.7   13.2    0.3   0.33   1.38    0.00    0.00   0.00   0.00   0.00   0.00  18.17   4.52
   15 233   157   156  122.1   99.7   1.67   0.33  153.3    4.7   13.2    0.3   0.33   1.38    0.00    0.00   0.00   0.00   0.00   0.00  18.17   4.52
   15 234   158   157  122.1   99.7   1.67   0.33  153.3    4.7   13.2    0.3   0.33   1.38    0.00    0.00   0.00   0.00   0.00   0.00  18.17   4.52
   15 235   159   158  122.1   99.7   1.67   0.33  153.3    4.7   13.2    0.3   0.33   1.38    0.00    0.00   0.00   0.00   0.00   0.00  18.17   4.52
   15 236   160   159  122.1   99.7   1.67   0.33  153.3    4.7   13.2    0.3   0.33   1.38    0.00    0.00   0.00   0.00   0.00   0.00  18.17   4.52
   15 237   161   160  122.1   99.7   1.67   0.33  153.3    4.7   13.2    0.3   0.33   1.38    0.00    0.00   0.00   0.00   0.00   0.00  18.17   4.52

*DSSAT Cropping System Model Ver. 4.8.5.000 -release  FEB 02, 2026 11:46:55

*RUN   2        : 2                         WHAPS048 TUDU1501    2
 MODEL          : WHAPS048 - Wheat
 EXPERIMENT     : TUDU1501 WH
 DATA PATH      :
 TREATMENT  2   : 2                         WHAPS048
  
@YEAR DOY   DAS   DAP   CNAD   GNAD   GN%D   VN%D   NUPC   LNAD   SNAD   LN%D   SN%D   RN%D   SNN0C   SNN1C NFact1 NFact2 NFact3 NFact4  RootN lfshthN
   15 077     1     0    0.0    0.0   0.00   0.00    0.0    0.0    0.0    0.0   0.00   0.00    0.00    0.00   0.00   0.00   0.00   0.00   0.00   0.00
   15 078     2     1    0.0    0.0   0.00   0.00    0.0    0.0    0.0    0.0   0.00   0.00    0.00    0.00   0.00   0.00   0.00   0.00   0.00   0.00
   15 079     3     2    0.0    0.0   0.00   0.00    0.0    0.0    0.0    0.0   0.00   0.00    0.00    0.00   0.00   0.00   0.00   0.00   0.00   0.00
   15 080     4     3    0.0    0.0   0.00   0.00    0.0    0.0    0.0    0.0   0.00   0.00    0.00    0.00   0.00   0.00   0.00   0.00   0.00   0.00
   15 081     5     4    0.0    0.0   0.00   0.00    0.0    0.0    0.0    0.0   0.00   0.00    0.00    0.00   0.00   0.00   0.00   0.00   0.00   0.00
   15 082     6     5    0.0    0.0   0.00   0.00    0.0    0.0    0.0    0.0   0.00   0.00    0.00    0.00   0.00   0.00   0.00   0.00   0.00   0.00
   15 083     7     6    0.0    0.0   0.00   0.00    0.0    0.0    0.0    0.0   0.00   0.00    0.00    0.00   0.00   0.00   0.00   0.00   0.00   0.00
   15 084     8     7    0.0    0.0   0.00   0.00    0.0    0.0    0.0    0.0   0.00   0.00    0.00    0.00   0.00   0.00   0.00   0.00   0.00   0.00
   15 085     9     8    0.0    0.0   0.00   0.00    0.0    0.0    0.0    0.0   0.00   0.00    0.00    0.00   0.00   0.00   0.00   0.00   0.00   0.00
   15 086    10     9    0.0    0.0   0.00   0.00    0.0    0.0    0.0    0.0   0.00   0.00    0.00    0.00   0.00   0.00   0.00   0.00   0.00   0.00
   15 087    11    10    0.0    0.0   0.00   0.00    0.0    0.0    0.0    0.0   0.00   0.00    0.00    0.00   0.00   0.00   0.00   0.00   0.00   0.00
   15 088    12    11    0.0    0.0   0.00   0.00    0.0    0.0    0.0    0.0   0.00   0.00    0.00    0.00   0.00   0.00   0.00   0.00   0.00   0.00
   15 089    13    12    1.0    0.0   0.00   9.37    0.2    0.6    0.0    5.8   6.34   4.42    0.00    0.00   0.00   0.00   0.00   0.00   1.07   0.41
   15 090    14    13    1.1    0.0   0.00   8.08    0.2    0.6    0.0    5.4   6.34   4.32    0.00    0.00   0.00   0.00   0.00   0.00   1.06   0.41
   15 091    15    14    1.2    0.0   0.00   8.40    0.3    0.7    0.0    6.1   6.34   4.20    0.00    0.00   0.00   0.00   0.00   0.00   1.05   0.41
   15 092    16    15    1.2    0.0   0.00   8.08    0.4    0.8    0.0    6.1   6.34   4.11    0.00    0.00   0.00   0.00   0.00   0.00   1.04   0.41
   15 093    17    16    1.2    0.0   0.00   7.19    0.4    0.8    0.0    5.7   6.34   3.92    0.00    0.00   0.00   0.00   0.00   0.00   1.03   0.41
   15 094    18    17    1.3    0.0   0.00   7.16    0.4    0.9    0.0    6.0   6.34   3.84    0.00    0.00   0.00   0.00   0.00   0.00   1.02   0.41
   15 095    19    18    1.3    0.0   0.00   7.02    0.5    0.9    0.0    6.0   6.34   3.73    0.00    0.00   0.00   0.00   0.00   0.00   1.01   0.41
   15 096    20    19    1.4    0.0   0.00   6.83    0.5    0.9    0.0    6.0   6.34   3.62    0.00    0.00   0.00   0.00   0.00   0.00   1.00   0.41
   15 097    21    20    1.4    0.0   0.00   6.37    0.5    0.9    0.0    5.8   6.34   3.40    0.00    0.00   0.00   0.00   0.00   0.00   0.99   0.41
   15 098    22    21    1.4    0.0   0.00   5.31    0.6    1.0    0.0    5.1   6.34   3.20    0.00    0.00   0.00   0.00   0.00   0.00   0.98   0.41
   15 099    23    22    1.6    0.0   0.00   4.37    0.8    1.2    0.0    4.4   6.34   2.94    0.00    0.00   0.00   0.00   0.00   0.00   0.97   0.44
   15 100    24    23    2.3    0.0   0.00   4.95    1.4    1.6    0.0    5.1   6.34   2.71    0.00    0.00   0.20   0.47   0.72   0.72   0.96   0.62
   15 101    25    24    2.8    0.0   0.00   4.79    1.9    1.9    0.0    4.8   6.34   2.48    0.00    0.00   0.00   0.29   0.50   0.50   0.95   0.82
   15 102    26    25    3.4    0.0   0.00   4.84    2.6    2.4    0.0    4.9   6.34   2.24    0.00    0.00   0.00   0.33   0.55   0.55   0.94   1.02
   15 103    27    26    4.2    0.0   0.00   4.84    3.3    2.8    0.0    4.9   6.34   2.00    0.00    0.00   0.00   0.30   0.51   0.51   0.93   1.29
   15 104    28    27    4.6    0.0   0.00   4.39    3.8    3.1    0.0    4.5   6.34   1.78    0.00    0.00   0.00   0.29   0.49   0.49   0.95   1.49
   15 105    29    28    4.9    0.0   0.00   3.88    4.1    3.2    0.0    4.1   6.34   1.55    0.00    0.00   0.11   0.40   0.65   0.65   0.97   1.63
   15 106    30    29    5.2    0.0   0.00   3.63    4.4    3.4    0.0    3.8   6.34   1.47    0.00    0.00   0.32   0.54   0.79   0.79   1.00   1.78
   15 107    31    30    8.7    0.0   0.00   5.65    8.3    5.3    0.0    5.6   6.34   1.96    0.00    0.00   0.42   0.61   0.85   0.85   1.40   3.36
   15 108    32    31    9.3    0.0   0.00   5.70    9.1    5.7    0.0    5.7   6.34   2.01    0.00    0.00   0.00   0.00   0.00   0.00   1.59   3.60
   15 109    33    32   10.0    0.0   0.00   5.65   10.0    6.0    0.0    5.6   6.34   1.99    0.00    0.00   0.00   0.00   0.00   0.00   1.81   3.92
   15 110    34    33   11.1    0.0   0.00   5.57   11.5    6.6    0.0    5.5   6.34   1.96    0.00    0.00   0.00   0.00   0.00   0.00   2.18   4.45
   15 111    35    34   12.7    0.0   0.00   5.48   13.7    7.4    0.0    5.4   6.34   1.94    0.00    0.00   0.00   0.00   0.00   0.00   2.75   5.26
   15 112    36    35   14.6    0.0   0.00   5.42   16.3    8.4    0.0    5.4   6.34   1.93    0.00    0.00   0.00   0.00   0.00   0.00   3.39   6.16
   15 113    37    36   15.5    0.0   0.00   5.45   17.5    8.9    0.0    5.4   6.34   1.95    0.00    0.00   0.00   0.00   0.00   0.00   3.67   6.56
   15 114    38    37   16.9    0.0   0.00   5.35   19.4    9.6    0.0    5.3   6.34   1.93    0.00    0.00   0.00   0.00   0.00   0.00   4.16   7.25
   15 115    39    38   18.9    0.0   0.00   5.28   21.9   10.7    0.0    5.2   6.34   1.92    0.00    0.00   0.00   0.00   0.00   0.00   4.50   8.23
   15 116    40    39   21.1    0.0   0.00   5.03   24.6   11.8    0.0    5.0   6.34   1.85    0.00    0.00   0.00   0.00   0.00   0.00   4.99   9.29
   15 117    41    40   24.4    0.0   0.00   5.11   29.1   13.5    0.0    5.1   6.34   1.91    0.00    0.00   0.00   0.04   0.07   0.07   6.13  10.87
   15 118    42    41   26.1    0.0   0.00   5.14   31.4   14.4    0.0    5.1   6.34   1.94    0.00    0.00   0.00   0.00   0.00   0.00   6.71  11.64
   15 119    43    42   27.0    0.0   0.00   5.10   32.6   14.9    0.0    5.1   6.34   1.92    0.00    0.00   0.00   0.00   0.00   0.00   6.99  12.05
   15 120    44    43   29.0    0.0   0.00   5.06   35.5   15.9    0.0    5.1   6.34   1.92    0.00    0.00   0.00   0.00   0.00   0.00   7.74  13.03
   15 121    45    44   30.5    0.0   0.00   5.07   37.7   16.7    0.0    5.1   6.34   1.94    0.00    0.00   0.00   0.00   0.00   0.00   8.33  13.84
   15 122    46    45   32.4    0.0   0.00   4.99   40.4   17.6    0.0    5.0   6.34   1.92    0.00    0.00   0.00   0.00   0.00   0.00   9.04  14.76
   15 123    47    46   33.8    0.0   0.00   4.76   42.0   18.3    0.0    4.8   6.34   1.86    0.00    0.00   0.00   0.00   0.00   0.00   9.22  15.47
   15 124    48    47   35.9    0.0   0.00   4.54   44.8   19.3    0.0    4.6   6.34   1.77    0.00    0.00   0.00   0.02   0.04   0.04   9.78  16.56
   15 125    49    48   38.0    0.0   0.00   4.32   47.4   20.4    0.0    4.3   6.34   1.74    0.00    0.00   0.00   0.08   0.15   0.15  10.17  17.60
   15 126    50    49   38.8    0.0   0.00   4.18   48.5   20.8    0.0    4.2   6.34   1.64    0.00    0.00   0.00   0.15   0.27   0.27  10.34  18.02
   15 127    51    50   40.1    0.0   0.00   4.07   50.3   21.4    0.0    4.1   6.34   1.58    0.00    0.00   0.00   0.18   0.33   0.33  10.73  18.70
   15 128    52    51   41.7    0.0   0.00   3.95   52.5   22.2    0.0    4.0   6.34   1.52    0.00    0.00   0.00   0.21   0.37   0.37  11.25  19.46
   15 129    53    52   43.1    0.0   0.00   3.87   54.5   22.9    0.0    3.9   6.34   1.48    0.00    0.00   0.00   0.23   0.41   0.41  11.76  20.19
   15 130    54    53   44.4    0.0   0.00   3.80   56.5   23.5    0.0    3.8   6.34   1.45    0.00    0.00   0.00   0.25   0.44   0.44  12.25  20.86
   15 131    55    54   45.5    0.0   0.00   3.71   58.1   24.1    0.0    3.7   6.34   1.42    0.00    0.00   0.00   0.27   0.46   0.46  12.65  21.42
   15 132    56    55   46.4    0.0   0.00   3.56   59.5   24.5    0.0    3.6   6.34   1.35    0.00    0.00   0.00   0.28   0.48   0.48  12.98  21.89
   15 133    57    56   47.3    0.0   0.00   3.42   60.8   24.9    0.0    3.5   6.34   1.29    0.00    0.00   0.00   0.32   0.54   0.54  13.28  22.33
   15 134    58    57   48.1    0.0   0.00   3.34   62.0   25.4    0.0    3.4   6.34   1.26    0.00    0.00   0.05   0.36   0.60   0.60  13.58  22.74
   15 135    59    58   48.9    0.0   0.00   3.21   63.2   25.7    0.1    3.3   0.44   1.26    0.00    0.00   0.08   0.39   0.63   0.63  13.81  23.15
   15 136    60    59   49.7    0.0   0.00   2.94   64.3   26.1    0.1    3.1   0.30   1.23    0.00    0.00   0.15   0.43   0.68   0.68  13.95  23.51
   15 137    61    60   50.5    0.0   0.00   2.80   65.3   26.4    0.2    2.9   0.34   1.21    0.00    0.00   0.31   0.54   0.79   0.79  14.05  23.84
   15 138    62    61   51.1    0.0   0.00   2.65   66.2   26.7    0.3    2.8   0.34   1.18    0.00    0.00   0.39   0.59   0.83   0.83  14.11  24.14
   15 139    63    62   51.8    0.0   0.00   2.60   67.0   27.0    0.4    2.8   0.39   1.18    0.00    0.00   0.48   0.65   0.88   0.88  14.18  24.43
   15 140    64    63   52.4    0.0   0.00   2.58   67.8   27.2    0.5    2.8   0.44   1.18    0.00    0.00   0.50   0.67   0.89   0.89  14.22  24.69
   15 141    65    64   53.0    0.0   0.00   2.53   68.6   27.5    0.6    2.7   0.46   1.17    0.00    0.00   0.50   0.67   0.89   0.89  14.24  24.93
   15 142    66    65   53.6    0.0   0.00   2.46   69.4   27.7    0.7    2.7   0.47   1.15    0.00    0.00   0.52   0.68   0.90   0.90  14.28  25.19
   15 143    67    66   54.1    0.0   0.00   2.41   70.1   27.9    0.8    2.6   0.48   1.15    0.00    0.00   0.56   0.71   0.91   0.91  14.30  25.41
   15 144    68    67   54.6    0.0   0.00   2.38   70.7   28.1    0.9    2.6   0.50   1.14    0.00    0.00   0.58   0.72   0.92   0.92  14.30  25.62
   15 145    69    68   55.1    0.0   0.00   2.33   71.3   28.3    1.0    2.5   0.50   1.13    0.00    0.00   0.58   0.72   0.92   0.92  14.29  25.80
   15 146    70    69   55.6    0.0   0.00   2.30   71.9   28.5    1.1    2.5   0.51   1.12    0.00    0.00   0.60   0.74   0.93   0.93  14.28  25.98
   15 147    71    70   56.0    0.0   0.00   2.26   72.5   28.7    1.2    2.5   0.51   1.11    0.00    0.00   0.62   0.74   0.93   0.93  14.27  26.15
   15 148    72    71   56.4    0.0   0.00   2.20   73.0   28.8    1.3    2.4   0.50   1.09    0.00    0.00   0.63   0.75   0.94   0.94  14.25  26.32
   15 149    73    72   56.9    0.0   0.00   2.16   73.6   29.0    1.4    2.4   0.50   1.08    0.00    0.00   0.66   0.77   0.95   0.95  14.24  26.48
   15 150    74    73   57.3    0.0   0.00   2.13   74.2   29.1    1.6    2.4   0.50   1.07    0.00    0.00   0.67   0.78   0.95   0.95  14.24  26.64
   15 151    75    74   57.8    0.0   0.00   2.09   74.8   29.3    1.7    2.4   0.50   1.06    0.00    0.00   0.67   0.78   0.95   0.95  14.23  26.80
   15 152    76    75   62.3    0.0   0.00   2.21   80.8   30.8    3.1    2.4   0.87   1.15    0.00    0.00   0.67   0.78   0.95   0.95  15.55  28.38
   15 153    77    76   66.8    0.0   0.00   2.28   86.8   32.2    4.7    2.5   1.16   1.23    0.00    0.00   0.50   0.67   0.89   0.89  16.88  29.89
   15 154    78    77   71.3    0.0   0.00   2.32   92.8   33.5    6.4    2.5   1.36   1.29    0.00    0.00   0.36   0.57   0.82   0.82  18.22  31.31
   15 155    79    78   73.9    0.0   0.00   2.27   96.3   34.2    7.6    2.5   1.34   1.30    0.00    0.00   0.25   0.50   0.75   0.75  18.94  32.09
   15 156    80    79   75.3    0.0   0.00   2.20   98.2   34.6    8.2    2.4   1.27   1.28    0.00    0.00   0.24   0.49   0.74   0.74  19.24  32.48
   15 157    81    80   79.7    0.0   0.00   2.23  104.2   35.6   10.5    2.5   1.44   1.35    0.00    0.00   0.26   0.51   0.76   0.76  20.64  33.58
   15 158    82    81   82.7    0.0   0.00   2.20  108.4   36.2   12.2    2.4   1.46   1.37    0.00    0.00   0.14   0.43   0.67   0.67  21.58  34.26
   15 159    83    82   87.0    0.0   0.00   2.26  114.4   37.0   14.9    2.5   1.66   1.45    0.00    0.00   0.12   0.41   0.65   0.65  23.09  35.13
   15 160    84    83   91.0    0.0   0.00   2.31  120.1   37.5   17.8    2.5   1.81   1.53    0.00    0.00   0.00   0.32   0.54   0.54  24.52  35.71
   15 161    85    84   92.0    0.0   0.00   2.26  121.5   37.5   18.8    2.5   1.69   1.54    0.00    0.00   0.00   0.20   0.36   0.36  24.73  35.74
   15 162    86    85   92.8    0.0   0.00   2.18  122.7   37.5   19.6    2.5   1.52   1.52    0.00    0.00   0.00   0.15   0.28   0.28  24.79  35.74
   15 163    87    86   93.6    0.0   0.00   2.09  123.7   37.5   20.4    2.5   1.33   1.50    0.00    0.00   0.00   0.13   0.24   0.24  24.80  35.74
   15 164    88    87   94.4    0.0   0.00   2.01  124.8   37.5   21.2    2.5   1.23   1.48    0.00    0.00   0.00   0.14   0.26   0.26  24.81  35.74
   15 165    89    88   95.2    0.0   0.00   1.94  125.8   37.5   22.0    2.5   1.13   1.45    0.00    0.00   0.00   0.15   0.27   0.27  24.79  35.74
   15 166    90    89   96.0    0.0   0.00   1.91  126.9   37.5   22.8    2.5   1.10   1.45    0.00    0.00   0.00   0.19   0.34   0.34  24.79  35.74
   15 167    91    90   97.0    0.0   0.00   1.86  128.2   37.5   23.8    2.5   1.05   1.43    0.00    0.00   0.00   0.16   0.29   0.29  24.83  35.74
   15 168    92    91   98.2    0.0   0.00   1.81  129.6   37.5   24.9    2.5   1.01   1.41    0.00    0.00   0.00   0.17   0.30   0.30  24.88  35.74
   15 169    93    92   99.1    0.0   0.00   1.79  130.9   37.5   25.9    2.5   1.00   1.41    0.00    0.00   0.00   0.18   0.33   0.33  24.90  35.74
   15 170    94    93  100.1    0.0   0.00   1.75  132.1   37.5   26.9    2.5   0.98   1.40    0.00    0.00   0.00   0.15   0.28   0.28  24.91  35.74
   15 171    95    94  101.0    0.0   0.00   1.72  133.3   37.5   27.8    2.5   0.96   1.39    0.00    0.00   0.00   0.15   0.27   0.27  24.90  35.74
   15 172    96    95  101.9    0.0   0.00   1.69  134.3   37.5   28.7    2.5   0.93   1.38    0.00    0.00   0.00   0.13   0.24   0.24  24.88  35.74
   15 173    97    96  102.6    0.0   0.00   1.66  135.3   37.5   29.4    2.5   0.91   1.36    0.00    0.00   0.00   0.10   0.19   0.19  24.84  35.74
   15 174    98    97  103.4    0.0   0.00   1.62  136.3   37.5   30.2    2.5   0.88   1.35    0.00    0.00   0.00   0.09   0.18   0.18  24.81  35.74
   15 175    99    98  104.2    0.0   0.00   1.58  137.3   37.5   31.0    2.5   0.85   1.33    0.00    0.00   0.00   0.09   0.17   0.17  24.77  35.74
   15 176   100    99  105.0    0.0   0.00   1.54  138.3   37.5   31.8    2.5   0.82   1.32    0.00    0.00   0.00   0.09   0.17   0.17  24.73  35.74
   15 177   101   100  105.7    0.0   0.00   1.50  139.2   37.5   32.5    2.5   0.79   1.31    0.00    0.00   0.00   0.06   0.11   0.11  24.68  35.74
   15 178   102   101  106.4    0.0   0.00   1.48  140.1   37.5   33.2    2.5   0.78   1.31    0.00    0.00   0.00   0.00   0.00   0.00  24.62  35.74
   15 179   103   102  107.0    0.0   0.00   1.44  140.9   37.5   33.8    2.5   0.75   1.30    0.00    0.00   0.00   0.00   0.00   0.00  24.55  35.74
   15 180   104   103  107.6    0.0   0.00   1.41  141.7   37.5   34.4    2.5   0.73   1.30    0.00    0.00   0.00   0.00   0.00   0.00  24.49  35.74
   15 181   105   104  108.1    0.0   0.00   1.37  142.4   37.5   34.9    2.5   0.71   1.29    0.00    0.00   0.00   0.00   0.00   0.00  24.43  35.74
   15 182   106   105  108.6    0.0   0.00   1.34  143.0   37.5   35.4    2.5   0.69   1.28    0.00    0.00   0.00   0.00   0.00   0.00  24.38  35.74
   15 183   107   106  109.1    0.0   0.00   1.31  143.8   37.5   35.9    2.5   0.67   1.28    0.00    0.00   0.00   0.00   0.00   0.00  24.38  35.74
   15 184   108   107  109.5    0.0   0.00   1.29  144.4   37.5   36.3    2.5   0.65   1.28    0.00    0.00   0.00   0.00   0.00   0.00  24.35  35.74
   15 185   109   108  109.8    0.0   0.00   1.26  144.9   37.5   36.6    2.5   0.64   1.28    0.00    0.00   0.00   0.00   0.00   0.00  24.34  35.74
   15 186   110   109  110.0   23.7   2.21   1.11  145.4   32.6   35.9    2.2   0.75   1.29    0.00    0.00   0.00   0.00   0.00   0.00  24.47  17.81
   15 187   111   110  110.0   28.9   1.93   1.08  145.9   29.1   35.4    1.9   0.78   1.30    0.00    0.00   0.00   0.00   0.00   0.00  24.72  16.58
   15 188   112   111  110.0   35.4   1.79   1.04  151.0   25.1   34.4    1.7   0.81   1.57    0.00    0.00   0.00   0.00   0.00   0.00  29.53  15.14
   15 189   113   112  110.0   39.4   1.71   1.00  153.9   22.9   33.4    1.5   0.82   1.72    0.00    0.00   0.00   0.00   0.00   0.00  32.10  14.31
   15 190   114   113  110.0   43.0   1.65   0.97  153.9   21.0   32.4    1.4   0.82   1.71    0.00    0.00   0.00   0.00   0.00   0.00  31.80  13.61
   15 191   115   114  110.0   46.9   1.64   0.92  153.9   19.1   31.2    1.3   0.79   1.71    0.00    0.00   0.00   0.00   0.00   0.00  31.48  12.87
   15 192   116   115  110.0   51.6   1.68   0.85  153.9   16.8   29.6    1.1   0.75   1.71    0.00    0.00   0.00   0.00   0.00   0.00  31.16  11.97
   15 193   117   116  110.0   56.5   1.72   0.78  153.9   14.5   28.0    1.0   0.71   1.71    0.00    0.00   0.00   0.00   0.00   0.00  30.85  11.05
   15 194   118   117  110.0   60.6   1.78   0.72  153.9   12.6   26.5    0.8   0.67   1.71    0.00    0.00   0.00   0.00   0.00   0.00  30.54  10.26
   15 195   119   118  111.7   65.3   1.84   0.67  154.8   11.3   25.4    0.8   0.65   1.68    0.00    0.00   0.00   0.00   0.00   0.00  29.56   9.68
   15 196   120   119  114.1   70.0   1.87   0.64  155.4   10.4   24.5    0.7   0.62   1.57    0.00    0.00   0.00   0.00   0.00   0.00  27.36   9.23
   15 197   121   120  115.8   73.5   1.88   0.61  155.6    9.8   23.7    0.6   0.60   1.49    0.00    0.00   0.00   0.00   0.00   0.00  25.74   8.88
   15 198   122   121  117.1   76.2   1.89   0.59  155.9    9.3   23.0    0.6   0.59   1.44    0.00    0.00   0.00   0.00   0.00   0.00  24.57   8.58
   15 199   123   122  118.0   78.5   1.88   0.57  156.0    8.9   22.4    0.6   0.57   1.40    0.00    0.00   0.00   0.00   0.00   0.00  23.70   8.32
   15 200   124   123  118.8   80.3   1.87   0.56  156.0    8.6   21.8    0.6   0.55   1.37    0.00    0.00   0.00   0.00   0.00   0.00  23.04   8.08
   15 201   125   124  119.3   82.0   1.85   0.54  156.0    8.3   21.2    0.5   0.54   1.36    0.00    0.00   0.00   0.00   0.00   0.00  22.51   7.86
   15 202   126   125  119.8   83.5   1.83   0.53  156.1    8.0   20.7    0.5   0.52   1.34    0.00    0.00   0.00   0.00   0.00   0.00  22.09   7.65
   15 203   127   126  120.2   84.8   1.82   0.51  156.2    7.8   20.1    0.5   0.51   1.33    0.00    0.00   0.00   0.00   0.00   0.00  21.72   7.43
   15 204   128   127  120.5   86.1   1.80   0.50  156.2    7.5   19.6    0.5   0.50   1.33    0.00    0.00   0.00   0.00   0.00   0.00  21.38   7.23
   15 205   129   128  120.8   87.3   1.79   0.48  156.2    7.3   19.1    0.5   0.48   1.32    0.00    0.00   0.00   0.00   0.00   0.00  21.09   7.04
   15 206   130   129  121.1   88.5   1.78   0.47  156.2    7.1   18.6    0.5   0.47   1.32    0.00    0.00   0.00   0.00   0.00   0.00  20.82   6.85
   15 207   131   130  121.3   89.5   1.77   0.46  156.2    7.0   18.2    0.5   0.45   1.31    0.00    0.00   0.00   0.00   0.00   0.00  20.56   6.68
   15 208   132   131  121.6   90.4   1.77   0.44  156.6    6.8   17.9    0.4   0.44   1.33    0.00    0.00   0.00   0.00   0.00   0.00  20.68   6.52
   15 209   133   132  122.0   91.4   1.76   0.43  156.7    6.6   17.6    0.4   0.43   1.33    0.00    0.00   0.00   0.00   0.00   0.00  20.42   6.36
   15 210   134   133  122.3   92.3   1.75   0.43  156.8    6.5   17.3    0.4   0.42   1.33    0.00    0.00   0.00   0.00   0.00   0.00  20.21   6.21
   15 211   135   134  122.6   93.2   1.74   0.41  156.8    6.3   17.0    0.4   0.41   1.32    0.00    0.00   0.00   0.00   0.00   0.00  19.90   6.08
   15 212   136   135  122.9   94.0   1.74   0.40  156.8    6.2   16.7    0.4   0.40   1.31    0.00    0.00   0.00   0.00   0.00   0.00  19.64   5.94
   15 213   137   136  123.1   94.9   1.73   0.40  156.8    6.0   16.5    0.4   0.39   1.31    0.00    0.00   0.00   0.00   0.00   0.00  19.43   5.80
   15 214   138   137  123.4   95.7   1.72   0.39  156.8    5.9   16.1    0.4   0.39   1.31    0.00    0.00   0.00   0.00   0.00   0.00  19.23   5.65
   15 215   139   138  123.6   96.7   1.72   0.38  156.8    5.7   15.7    0.4   0.37   1.31    0.00    0.00   0.00   0.00   0.00   0.00  19.04   5.50
   15 216   140   139  123.9   97.7   1.71   0.37  156.8    5.5   15.3    0.4   0.37   1.31    0.00    0.00   0.00   0.00   0.00   0.00  18.87   5.33
   15 217   141   140  124.1   98.7   1.70   0.36  156.8    5.4   14.9    0.4   0.36   1.31    0.00    0.00   0.00   0.00   0.00   0.00  18.71   5.16
   15 218   142   141  124.4   99.8   1.70   0.35  156.8    5.2   14.4    0.3   0.35   1.31    0.00    0.00   0.00   0.04   0.07   0.07  18.55   4.99
   15 219   143   142  124.6  101.0   1.69   0.34  156.8    5.0   13.9    0.3   0.34   1.31    0.00    0.00   0.00   0.06   0.12   0.12  18.39   4.82
   15 220   144   143  124.9  102.2   1.68   0.33  156.8    4.8   13.3    0.3   0.33   1.31    0.00    0.00   0.00   0.08   0.15   0.15  18.22   4.64
   15 221   145   144  124.9  102.2   1.68   0.33  156.8    4.8   13.3    0.3   0.33   1.33    0.00    0.00   0.00   0.10   0.18   0.18  18.30   4.64
   15 222   146   145  124.9  102.2   1.68   0.33  156.8    4.8   13.3    0.3   0.33   1.35    0.00    0.00   0.00   0.00   0.00   0.00  18.39   4.65
   15 223   147   146  124.9  102.2   1.68   0.33  156.8    4.8   13.3    0.3   0.33   1.37    0.00    0.00   0.00   0.00   0.00   0.00  18.48   4.65
   15 224   148   147  124.9  102.2   1.68   0.33  156.8    4.8   13.3    0.3   0.33   1.37    0.00    0.00   0.00   0.00   0.00   0.00  18.30   4.65
   15 225   149   148  124.9  102.2   1.68   0.33  156.8    4.8   13.3    0.3   0.33   1.37    0.00    0.00   0.00   0.00   0.00   0.00  18.30   4.65
   15 226   150   149  124.9  102.2   1.68   0.33  156.8    4.8   13.3    0.3   0.33   1.37    0.00    0.00   0.00   0.00   0.00   0.00  18.30   4.65
   15 227   151   150  124.9  102.2   1.68   0.33  156.8    4.8   13.3    0.3   0.33   1.37    0.00    0.00   0.00   0.00   0.00   0.00  18.30   4.65
   15 228   152   151  124.9  102.2   1.68   0.33  156.8    4.8   13.3    0.3   0.33   1.37    0.00    0.00   0.00   0.00   0.00   0.00  18.30   4.65
   15 229   153   152  124.9  102.2   1.68   0.33  156.8    4.8   13.3    0.3   0.33   1.37    0.00    0.00   0.00   0.00   0.00   0.00  18.30   4.65
   15 230   154   153  124.9  102.2   1.68   0.33  156.8    4.8   13.3    0.3   0.33   1.37    0.00    0.00   0.00   0.00   0.00   0.00  18.30   4.65
   15 231   155   154  124.9  102.2   1.68   0.33  156.8    4.8   13.3    0.3   0.33   1.37    0.00    0.00   0.00   0.00   0.00   0.00  18.30   4.65
   15 232   156   155  124.9  102.2   1.68   0.33  156.8    4.8   13.3    0.3   0.33   1.37    0.00    0.00   0.00   0.00   0.00   0.00  18.30   4.65
   15 233   157   156  124.9  102.2   1.68   0.33  156.8    4.8   13.3    0.3   0.33   1.37    0.00    0.00   0.00   0.00   0.00   0.00  18.30   4.65
   15 234   158   157  124.9  102.2   1.68   0.33  156.8    4.8   13.3    0.3   0.33   1.37    0.00    0.00   0.00   0.00   0.00   0.00  18.30   4.65
   15 235   159   158  124.9  102.2   1.68   0.33  156.8    4.8   13.3    0.3   0.33   1.37    0.00    0.00   0.00   0.00   0.00   0.00  18.30   4.65
   15 236   160   159  124.9  102.2   1.68   0.33  156.8    4.8   13.3    0.3   0.33   1.37    0.00    0.00   0.00   0.00   0.00   0.00  18.30   4.65
   15 237   161   160  124.9  102.2   1.68   0.33  156.8    4.8   13.3    0.3   0.33   1.37    0.00    0.00   0.00   0.00   0.00   0.00  18.30   4.65

*DSSAT Cropping System Model Ver. 4.8.5.000 -release  FEB 02, 2026 11:46:55

*RUN   3        : 3                         WHAPS048 TUDU1501    3
 MODEL          : WHAPS048 - Wheat
 EXPERIMENT     : TUDU1501 WH
 DATA PATH      :
 TREATMENT  3   : 3                         WHAPS048
  
@YEAR DOY   DAS   DAP   CNAD   GNAD   GN%D   VN%D   NUPC   LNAD   SNAD   LN%D   SN%D   RN%D   SNN0C   SNN1C NFact1 NFact2 NFact3 NFact4  RootN lfshthN
   15 077     1     0    0.0    0.0   0.00   0.00    0.0    0.0    0.0    0.0   0.00   0.00    0.00    0.00   0.00   0.00   0.00   0.00   0.00   0.00
   15 078     2     1    0.0    0.0   0.00   0.00    0.0    0.0    0.0    0.0   0.00   0.00    0.00    0.00   0.00   0.00   0.00   0.00   0.00   0.00
   15 079     3     2    0.0    0.0   0.00   0.00    0.0    0.0    0.0    0.0   0.00   0.00    0.00    0.00   0.00   0.00   0.00   0.00   0.00   0.00
   15 080     4     3    0.0    0.0   0.00   0.00    0.0    0.0    0.0    0.0   0.00   0.00    0.00    0.00   0.00   0.00   0.00   0.00   0.00   0.00
   15 081     5     4    0.0    0.0   0.00   0.00    0.0    0.0    0.0    0.0   0.00   0.00    0.00    0.00   0.00   0.00   0.00   0.00   0.00   0.00
   15 082     6     5    0.0    0.0   0.00   0.00    0.0    0.0    0.0    0.0   0.00   0.00    0.00    0.00   0.00   0.00   0.00   0.00   0.00   0.00
   15 083     7     6    0.0    0.0   0.00   0.00    0.0    0.0    0.0    0.0   0.00   0.00    0.00    0.00   0.00   0.00   0.00   0.00   0.00   0.00
   15 084     8     7    0.0    0.0   0.00   0.00    0.0    0.0    0.0    0.0   0.00   0.00    0.00    0.00   0.00   0.00   0.00   0.00   0.00   0.00
   15 085     9     8    0.0    0.0   0.00   0.00    0.0    0.0    0.0    0.0   0.00   0.00    0.00    0.00   0.00   0.00   0.00   0.00   0.00   0.00
   15 086    10     9    0.0    0.0   0.00   0.00    0.0    0.0    0.0    0.0   0.00   0.00    0.00    0.00   0.00   0.00   0.00   0.00   0.00   0.00
   15 087    11    10    0.0    0.0   0.00   0.00    0.0    0.0    0.0    0.0   0.00   0.00    0.00    0.00   0.00   0.00   0.00   0.00   0.00   0.00
   15 088    12    11    0.0    0.0   0.00   0.00    0.0    0.0    0.0    0.0   0.00   0.00    0.00    0.00   0.00   0.00   0.00   0.00   0.00   0.00
   15 089    13    12    1.0    0.0   0.00   9.37    0.2    0.6    0.0    5.8   6.34   4.42    0.00    0.00   0.00   0.00   0.00   0.00   1.07   0.41
   15 090    14    13    1.1    0.0   0.00   8.08    0.2    0.6    0.0    5.4   6.34   4.32    0.00    0.00   0.00   0.00   0.00   0.00   1.06   0.41
   15 091    15    14    1.2    0.0   0.00   8.40    0.3    0.7    0.0    6.1   6.34   4.20    0.00    0.00   0.00   0.00   0.00   0.00   1.05   0.41
   15 092    16    15    1.2    0.0   0.00   8.08    0.4    0.8    0.0    6.1   6.34   4.11    0.00    0.00   0.00   0.00   0.00   0.00   1.04   0.41
   15 093    17    16    1.2    0.0   0.00   7.19    0.4    0.8    0.0    5.7   6.34   3.92    0.00    0.00   0.00   0.00   0.00   0.00   1.03   0.41
   15 094    18    17    1.3    0.0   0.00   7.16    0.4    0.9    0.0    6.0   6.34   3.84    0.00    0.00   0.00   0.00   0.00   0.00   1.02   0.41
   15 095    19    18    1.3    0.0   0.00   7.02    0.5    0.9    0.0    6.0   6.34   3.73    0.00    0.00   0.00   0.00   0.00   0.00   1.01   0.41
   15 096    20    19    1.4    0.0   0.00   6.83    0.5    0.9    0.0    6.0   6.34   3.62    0.00    0.00   0.00   0.00   0.00   0.00   1.00   0.41
   15 097    21    20    1.4    0.0   0.00   6.37    0.5    0.9    0.0    5.8   6.34   3.40    0.00    0.00   0.00   0.00   0.00   0.00   0.99   0.41
   15 098    22    21    1.4    0.0   0.00   5.31    0.6    1.0    0.0    5.1   6.34   3.20    0.00    0.00   0.00   0.00   0.00   0.00   0.98   0.41
   15 099    23    22    1.6    0.0   0.00   4.37    0.8    1.2    0.0    4.4   6.34   2.94    0.00    0.00   0.00   0.00   0.00   0.00   0.97   0.44
   15 100    24    23    2.3    0.0   0.00   4.95    1.4    1.6    0.0    5.1   6.34   2.71    0.00    0.00   0.20   0.47   0.72   0.72   0.96   0.62
   15 101    25    24    2.8    0.0   0.00   4.79    1.9    1.9    0.0    4.8   6.34   2.48    0.00    0.00   0.00   0.29   0.50   0.50   0.95   0.82
   15 102    26    25    3.2    0.0   0.00   4.58    2.4    2.2    0.0    4.7   6.34   2.24    0.00    0.00   0.00   0.33   0.55   0.55   0.94   0.97
   15 103    27    26    3.6    0.0   0.00   4.27    2.8    2.5    0.0    4.4   6.34   2.01    0.00    0.00   0.06   0.38   0.61   0.61   0.93   1.10
   15 104    28    27    3.9    0.0   0.00   3.94    3.1    2.7    0.0    4.1   6.34   1.81    0.00    0.00   0.18   0.46   0.70   0.70   0.93   1.23
   15 105    29    28    4.2    0.0   0.00   3.62    3.4    2.8    0.0    3.8   6.34   1.63    0.00    0.00   0.31   0.54   0.79   0.79   0.95   1.36
   15 106    30    29    4.5    0.0   0.00   3.45    3.6    3.0    0.0    3.6   6.34   1.55    0.00    0.00   0.44   0.63   0.86   0.86   0.96   1.49
   15 107    31    30    4.9    0.0   0.00   3.52    4.1    3.2    0.0    3.7   6.34   1.54    0.00    0.00   0.50   0.67   0.89   0.89   0.99   1.67
   15 108    32    31    5.5    0.0   0.00   3.82    4.8    3.5    0.0    3.9   6.34   1.55    0.00    0.00   0.47   0.65   0.87   0.87   1.07   1.95
   15 109    33    32    6.2    0.0   0.00   4.04    5.6    3.9    0.0    4.2   6.34   1.53    0.00    0.00   0.32   0.54   0.79   0.79   1.17   2.24
   15 110    34    33    6.7    0.0   0.00   4.04    6.2    4.2    0.0    4.1   6.34   1.42    0.00    0.00   0.20   0.47   0.72   0.72   1.26   2.49
   15 111    35    34    7.3    0.0   0.00   3.92    6.9    4.5    0.0    4.0   6.34   1.31    0.00    0.00   0.19   0.46   0.71   0.71   1.37   2.73
   15 112    36    35    7.7    0.0   0.00   3.80    7.5    4.8    0.0    3.9   6.34   1.22    0.00    0.00   0.23   0.49   0.74   0.74   1.49   2.96
   15 113    37    36    8.3    0.0   0.00   3.85    8.2    5.0    0.0    4.0   6.34   1.24    0.00    0.00   0.28   0.52   0.77   0.77   1.62   3.20
   15 114    38    37    8.8    0.0   0.00   3.78    8.8    5.3    0.0    3.9   6.34   1.20    0.00    0.00   0.24   0.49   0.74   0.74   1.75   3.43
   15 115    39    38    9.3    0.0   0.00   3.67    9.5    5.6    0.0    3.8   6.34   1.18    0.00    0.00   0.26   0.51   0.76   0.76   1.88   3.67
   15 116    40    39    9.8    0.0   0.00   3.48   10.2    5.8    0.0    3.6   6.34   1.11    0.00    0.00   0.29   0.53   0.78   0.78   2.02   3.93
   15 117    41    40   10.4    0.0   0.00   3.41   11.0    6.2    0.0    3.5   6.34   1.09    0.00    0.00   0.37   0.58   0.82   0.82   2.21   4.23
   15 118    42    41   11.1    0.0   0.00   3.45   11.8    6.5    0.0    3.6   6.34   1.12    0.00    0.00   0.40   0.60   0.84   0.84   2.39   4.53
   15 119    43    42   11.7    0.0   0.00   3.52   12.7    6.8    0.0    3.6   6.34   1.16    0.00    0.00   0.37   0.58   0.82   0.82   2.58   4.84
   15 120    44    43   12.3    0.0   0.00   3.49   13.5    7.2    0.0    3.6   6.34   1.15    0.00    0.00   0.32   0.55   0.79   0.79   2.76   5.14
   15 121    45    44   12.7    0.0   0.00   3.44   14.1    7.4    0.0    3.5   6.34   1.14    0.00    0.00   0.32   0.55   0.80   0.80   2.87   5.34
   15 122    46    45   13.1    0.0   0.00   3.35   14.6    7.6    0.0    3.4   6.34   1.11    0.00    0.00   0.34   0.56   0.80   0.80   2.97   5.51
   15 123    47    46   13.4    0.0   0.00   3.20   15.0    7.7    0.0    3.3   6.34   1.09    0.00    0.00   0.37   0.58   0.82   0.82   3.04   5.66
   15 124    48    47   13.9    0.0   0.00   3.06   15.6    8.0    0.0    3.2   6.34   1.04    0.00    0.00   0.43   0.62   0.86   0.86   3.15   5.87
   15 125    49    48   14.3    0.0   0.00   2.95   16.2    8.2    0.0    3.0   6.34   1.04    0.00    0.00   0.49   0.66   0.88   0.88   3.25   6.10
   15 126    50    49   14.6    0.0   0.00   2.89   16.5    8.3    0.0    3.0   6.34   1.01    0.00    0.00   0.54   0.70   0.91   0.91   3.30   6.22
   15 127    51    50   15.0    0.0   0.00   2.84   17.0    8.5    0.0    2.9   6.34   0.99    0.00    0.00   0.56   0.71   0.92   0.92   3.39   6.40
   15 128    52    51   15.4    0.0   0.00   2.80   17.6    8.8    0.0    2.9   6.34   0.97    0.00    0.00   0.58   0.72   0.92   0.92   3.51   6.61
   15 129    53    52   15.8    0.0   0.00   2.77   18.2    9.0    0.0    2.9   6.34   0.95    0.00    0.00   0.59   0.72   0.92   0.92   3.63   6.82
   15 130    54    53   16.3    0.0   0.00   2.75   18.8    9.2    0.0    2.8   6.34   0.95    0.00    0.00   0.59   0.73   0.93   0.93   3.77   7.04
   15 131    55    54   16.8    0.0   0.00   2.73   19.5    9.5    0.0    2.8   6.34   0.94    0.00    0.00   0.59   0.72   0.92   0.92   3.91   7.27
   15 132    56    55   17.2    0.0   0.00   2.67   20.1    9.7    0.0    2.8   6.34   0.92    0.00    0.00   0.58   0.72   0.92   0.92   4.05   7.49
   15 133    57    56   17.7    0.0   0.00   2.62   20.8    9.9    0.0    2.7   6.34   0.90    0.00    0.00   0.60   0.73   0.93   0.93   4.20   7.72
   15 134    58    57   18.2    0.0   0.00   2.60   21.5   10.2    0.0    2.7   6.34   0.89    0.00    0.00   0.61   0.74   0.93   0.93   4.37   7.96
   15 135    59    58   18.7    0.0   0.00   2.59   22.2   10.4    0.0    2.7   1.08   0.92    0.00    0.00   0.61   0.74   0.93   0.93   4.52   8.20
   15 136    60    59   19.2    0.0   0.00   2.49   22.8   10.7    0.1    2.6   0.59   0.92    0.00    0.00   0.60   0.73   0.93   0.93   4.64   8.43
   15 137    61    60   19.6    0.0   0.00   2.45   23.5   10.9    0.1    2.6   0.58   0.93    0.00    0.00   0.65   0.77   0.95   0.95   4.76   8.65
   15 138    62    61   20.1    0.0   0.00   2.37   24.1   11.1    0.1    2.5   0.55   0.93    0.00    0.00   0.66   0.77   0.95   0.95   4.87   8.87
   15 139    63    62   20.6    0.0   0.00   2.36   24.7   11.3    0.2    2.5   0.60   0.94    0.00    0.00   0.70   0.80   0.96   0.96   4.97   9.07
   15 140    64    63   21.0    0.0   0.00   2.36   25.2   11.5    0.2    2.5   0.66   0.96    0.00    0.00   0.69   0.80   0.96   0.96   5.05   9.25
   15 141    65    64   21.3    0.0   0.00   2.34   25.7   11.6    0.3    2.5   0.67   0.96    0.00    0.00   0.68   0.78   0.95   0.95   5.12   9.41
   15 142    66    65   21.7    0.0   0.00   2.29   26.2   11.8    0.3    2.5   0.65   0.96    0.00    0.00   0.68   0.79   0.95   0.95   5.19   9.57
   15 143    67    66   22.1    0.0   0.00   2.26   26.7   12.0    0.4    2.4   0.66   0.96    0.00    0.00   0.71   0.80   0.96   0.96   5.26   9.73
   15 144    68    67   22.4    0.0   0.00   2.24   27.2   12.1    0.4    2.4   0.67   0.96    0.00    0.00   0.71   0.81   0.96   0.96   5.32   9.88
   15 145    69    68   22.8    0.0   0.00   2.21   27.6   12.2    0.5    2.4   0.67   0.96    0.00    0.00   0.71   0.81   0.96   0.96   5.38  10.03
   15 146    70    69   23.1    0.0   0.00   2.19   28.1   12.4    0.6    2.4   0.69   0.97    0.00    0.00   0.72   0.81   0.96   0.96   5.44  10.18
   15 147    71    70   23.5    0.0   0.00   2.16   28.6   12.5    0.6    2.4   0.70   0.97    0.00    0.00   0.72   0.81   0.97   0.97   5.50  10.32
   15 148    72    71   23.9    0.0   0.00   2.11   29.1   12.7    0.7    2.3   0.68   0.96    0.00    0.00   0.72   0.82   0.97   0.97   5.56  10.47
   15 149    73    72   24.2    0.0   0.00   2.08   29.6   12.8    0.8    2.3   0.69   0.96    0.00    0.00   0.74   0.83   0.97   0.97   5.62  10.61
   15 150    74    73   24.6    0.0   0.00   2.06   30.1   12.9    0.9    2.3   0.70   0.96    0.00    0.00   0.75   0.83   0.97   0.97   5.69  10.75
   15 151    75    74   25.0    0.0   0.00   2.03   30.6   13.1    1.0    2.3   0.70   0.96    0.00    0.00   0.74   0.83   0.97   0.97   5.75  10.89
   15 152    76    75   25.4    0.0   0.00   2.01   31.1   13.2    1.1    2.3   0.71   0.96    0.00    0.00   0.74   0.83   0.97   0.97   5.82  11.03
   15 153    77    76   25.7    0.0   0.00   1.98   31.6   13.3    1.2    2.3   0.71   0.95    0.00    0.00   0.73   0.82   0.97   0.97   5.90  11.16
   15 154    78    77   26.1    0.0   0.00   1.94   32.1   13.5    1.4    2.2   0.71   0.95    0.00    0.00   0.72   0.81   0.97   0.97   5.97  11.30
   15 155    79    78   26.5    0.0   0.00   1.91   32.7   13.6    1.5    2.2   0.71   0.95    0.00    0.00   0.72   0.81   0.96   0.96   6.06  11.43
   15 156    80    79   26.9    0.0   0.00   1.89   33.2   13.7    1.7    2.2   0.71   0.95    0.00    0.00   0.71   0.81   0.96   0.96   6.16  11.56
   15 157    81    80   27.4    0.0   0.00   1.87   33.9   13.8    1.9    2.2   0.73   0.95    0.00    0.00   0.70   0.80   0.96   0.96   6.28  11.70
   15 158    82    81   27.9    0.0   0.00   1.84   34.5   13.9    2.1    2.2   0.74   0.96    0.00    0.00   0.67   0.78   0.95   0.95   6.40  11.83
   15 159    83    82   28.4    0.0   0.00   1.85   35.3   14.1    2.3    2.2   0.79   0.98    0.00    0.00   0.66   0.77   0.95   0.95   6.58  11.98
   15 160    84    83   29.0    0.0   0.00   1.86   36.2   14.2    2.7    2.2   0.83   1.01    0.00    0.00   0.62   0.74   0.93   0.93   6.78  12.13
   15 161    85    84   29.6    0.0   0.00   1.85   37.0   14.3    3.0    2.2   0.85   1.04    0.00    0.00   0.53   0.69   0.90   0.90   7.00  12.26
   15 162    86    85   30.1    0.0   0.00   1.82   37.9   14.3    3.4    2.2   0.82   1.05    0.00    0.00   0.45   0.63   0.86   0.86   7.21  12.35
   15 163    87    86   30.7    0.0   0.00   1.76   38.7   14.4    3.9    2.2   0.77   1.06    0.00    0.00   0.39   0.60   0.84   0.84   7.41  12.41
   15 164    88    87   31.2    0.0   0.00   1.71   39.5   14.4    4.4    2.2   0.76   1.07    0.00    0.00   0.40   0.60   0.84   0.84   7.63  12.43
   15 165    89    88   31.7    0.0   0.00   1.66   40.3   14.4    4.9    2.2   0.74   1.07    0.00    0.00   0.38   0.58   0.83   0.83   7.82  12.44
   15 166    90    89   32.2    0.0   0.00   1.65   41.1   14.4    5.5    2.2   0.77   1.09    0.00    0.00   0.40   0.60   0.84   0.84   8.01  12.44
   15 167    91    90   32.9    0.0   0.00   1.62   42.0   14.4    6.1    2.2   0.77   1.10    0.00    0.00   0.34   0.56   0.81   0.81   8.23  12.44
   15 168    92    91   33.5    0.0   0.00   1.58   43.0   14.4    6.7    2.2   0.77   1.11    0.00    0.00   0.33   0.55   0.80   0.80   8.45  12.44
   15 169    93    92   34.1    0.0   0.00   1.58   43.9   14.4    7.3    2.2   0.79   1.13    0.00    0.00   0.34   0.56   0.80   0.80   8.64  12.44
   15 170    94    93   34.7    0.0   0.00   1.55   44.8   14.4    7.9    2.2   0.80   1.14    0.00    0.00   0.27   0.51   0.76   0.76   8.83  12.44
   15 171    95    94   35.4    0.0   0.00   1.53   45.7   14.4    8.6    2.2   0.80   1.15    0.00    0.00   0.25   0.50   0.75   0.75   9.02  12.44
   15 172    96    95   36.0    0.0   0.00   1.51   46.6   14.4    9.2    2.2   0.80   1.15    0.00    0.00   0.21   0.48   0.73   0.73   9.20  12.44
   15 173    97    96   36.5    0.0   0.00   1.48   47.4   14.4    9.7    2.2   0.79   1.15    0.00    0.00   0.17   0.44   0.69   0.69   9.34  12.44
   15 174    98    97   37.1    0.0   0.00   1.45   48.2   14.4   10.3    2.2   0.78   1.15    0.00    0.00   0.16   0.44   0.68   0.68   9.48  12.44
   15 175    99    98   37.7    0.0   0.00   1.41   49.0   14.4   10.9    2.2   0.76   1.14    0.00    0.00   0.16   0.44   0.68   0.68   9.63  12.44
   15 176   100    99   38.4    0.0   0.00   1.38   49.9   14.4   11.6    2.2   0.75   1.15    0.00    0.00   0.16   0.44   0.68   0.68   9.78  12.44
   15 177   101   100   39.0    0.0   0.00   1.34   50.7   14.4   12.2    2.2   0.73   1.15    0.00    0.00   0.11   0.41   0.65   0.65   9.91  12.44
   15 178   102   101   39.5    0.0   0.00   1.32   51.6   14.4   12.7    2.2   0.73   1.16    0.00    0.00   0.00   0.32   0.54   0.54  10.04  12.44
   15 179   103   102   40.1    0.0   0.00   1.28   52.4   14.4   13.3    2.2   0.71   1.16    0.00    0.00   0.00   0.17   0.32   0.32  10.17  12.44
   15 180   104   103   40.7    0.0   0.00   1.25   53.1   14.4   13.9    2.2   0.69   1.17    0.00    0.00   0.00   0.03   0.05   0.05  10.30  12.44
   15 181   105   104   41.2    0.0   0.00   1.22   53.9   14.4   14.4    2.2   0.68   1.17    0.00    0.00   0.00   0.00   0.00   0.00  10.43  12.44
   15 182   106   105   41.7    0.0   0.00   1.19   54.7   14.4   14.9    2.2   0.66   1.18    0.00    0.00   0.00   0.00   0.00   0.00  10.57  12.44
   15 183   107   106   42.2    0.0   0.00   1.16   55.4   14.4   15.4    2.2   0.64   1.19    0.00    0.00   0.00   0.00   0.00   0.00  10.72  12.44
   15 184   108   107   42.6    0.0   0.00   1.14   56.1   14.4   15.8    2.2   0.64   1.21    0.00    0.00   0.00   0.00   0.00   0.00  10.88  12.44
   15 185   109   108   43.0    0.0   0.00   1.12   56.8   14.4   16.2    2.2   0.62   1.23    0.00    0.00   0.00   0.00   0.00   0.00  11.07  12.44
   15 186   110   109   43.2   10.7   2.21   0.95   57.4   11.6   16.4    1.8   0.75   1.27    0.00    0.00   0.00   0.00   0.00   0.00  11.44   4.53
   15 187   111   110   43.2   13.1   1.93   0.90   58.0    9.7   16.0    1.5   0.77   1.32    0.00    0.00   0.00   0.00   0.00   0.00  11.91   4.40
   15 188   112   111   43.3   16.0   1.78   0.86   60.1    7.8   15.3    1.2   0.78   1.53    0.00    0.00   0.00   0.00   0.00   0.00  13.80   4.26
   15 189   113   112   43.4   17.8   1.70   0.82   62.0    6.8   14.6    1.0   0.77   1.72    0.00    0.00   0.00   0.00   0.00   0.00  15.42   4.20
   15 190   114   113   43.4   19.4   1.65   0.78   62.1    6.0   13.9    0.9   0.75   1.72    0.00    0.00   0.00   0.00   0.00   0.00  15.34   4.13
   15 191   115   114   43.8   21.2   1.60   0.73   62.5    5.4   13.2    0.8   0.72   1.72    0.00    0.00   0.00   0.00   0.00   0.00  15.28   4.06
   15 192   116   115   44.8   23.3   1.56   0.71   63.6    4.9   12.6    0.8   0.71   1.71    0.00    0.00   0.00   0.00   0.00   0.00  15.19   3.97
   15 193   117   116   46.0   25.5   1.53   0.70   64.8    4.6   12.0    0.7   0.71   1.71    0.00    0.00   0.00   0.00   0.00   0.00  15.08   3.87
   15 194   118   117   47.0   27.4   1.52   0.68   65.8    4.4   11.4    0.7   0.70   1.71    0.00    0.00   0.00   0.00   0.00   0.00  14.92   3.79
   15 195   119   118   48.2   29.5   1.56   0.65   66.8    4.2   10.8    0.6   0.66   1.68    0.00    0.00   0.00   0.00   0.00   0.00  14.53   3.70
   15 196   120   119   49.4   31.4   1.58   0.63   67.5    4.0   10.3    0.6   0.63   1.63    0.00    0.00   0.00   0.00   0.00   0.00  13.90   3.60
   15 197   121   120   50.4   33.0   1.59   0.60   68.1    3.9   10.0    0.6   0.61   1.57    0.00    0.00   0.00   0.00   0.00   0.00  13.33   3.51
   15 198   122   121   51.3   34.4   1.60   0.59   68.6    3.8    9.6    0.6   0.59   1.54    0.00    0.00   0.00   0.00   0.00   0.00  12.86   3.43
   15 199   123   122   52.1   35.7   1.60   0.57   69.0    3.7    9.4    0.6   0.57   1.51    0.00    0.00   0.00   0.00   0.00   0.00  12.48   3.34
   15 200   124   123   52.7   36.8   1.60   0.56   69.4    3.6    9.1    0.6   0.56   1.48    0.00    0.00   0.00   0.00   0.00   0.00  12.18   3.26
   15 201   125   124   53.3   37.8   1.60   0.54   69.8    3.5    8.9    0.5   0.54   1.47    0.00    0.00   0.00   0.00   0.00   0.00  11.92   3.18
   15 202   126   125   53.9   38.7   1.59   0.53   70.1    3.4    8.6    0.5   0.53   1.45    0.00    0.00   0.00   0.00   0.00   0.00  11.70   3.10
   15 203   127   126   54.4   39.6   1.58   0.51   70.5    3.3    8.4    0.5   0.51   1.44    0.00    0.00   0.00   0.00   0.00   0.00  11.49   3.02
   15 204   128   127   54.8   40.5   1.59   0.50   70.8    3.2    8.2    0.5   0.50   1.43    0.00    0.00   0.00   0.00   0.00   0.00  11.30   2.94
   15 205   129   128   55.3   41.3   1.58   0.48   71.1    3.1    7.9    0.5   0.48   1.43    0.00    0.00   0.00   0.00   0.00   0.00  11.13   2.86
   15 206   130   129   55.7   42.1   1.57   0.47   71.4    3.1    7.7    0.5   0.47   1.42    0.00    0.00   0.00   0.00   0.00   0.00  10.97   2.79
   15 207   131   130   56.1   42.8   1.56   0.46   71.7    3.0    7.6    0.5   0.45   1.41    0.00    0.00   0.00   0.00   0.00   0.00  10.81   2.72
   15 208   132   131   56.5   43.5   1.56   0.45   72.2    2.9    7.4    0.4   0.44   1.43    0.00    0.00   0.00   0.00   0.00   0.00  10.85   2.65
   15 209   133   132   56.9   44.2   1.55   0.44   72.9    2.8    7.3    0.4   0.44   1.46    0.00    0.00   0.00   0.00   0.00   0.00  10.99   2.59
   15 210   134   133   57.4   45.0   1.54   0.43   73.7    2.8    7.1    0.4   0.43   1.51    0.00    0.00   0.00   0.00   0.00   0.00  11.20   2.53
   15 211   135   134   58.0   45.9   1.54   0.42   74.3    2.7    6.9    0.4   0.42   1.49    0.00    0.00   0.00   0.00   0.00   0.00  11.01   2.48
   15 212   136   135   58.6   46.8   1.54   0.41   74.6    2.7    6.7    0.4   0.41   1.46    0.00    0.00   0.00   0.00   0.00   0.00  10.68   2.42
   15 213   137   136   59.1   47.6   1.55   0.40   74.9    2.6    6.6    0.4   0.40   1.44    0.00    0.00   0.00   0.00   0.00   0.00  10.36   2.36
   15 214   138   137   59.6   48.3   1.55   0.39   75.2    2.5    6.4    0.4   0.39   1.42    0.00    0.00   0.00   0.00   0.00   0.00  10.11   2.31
   15 215   139   138   59.9   49.0   1.55   0.38   75.5    2.5    6.2    0.4   0.38   1.40    0.00    0.00   0.00   0.00   0.00   0.00   9.90   2.24
   15 216   140   139   60.3   49.7   1.55   0.37   75.8    2.4    6.0    0.4   0.37   1.39    0.00    0.00   0.00   0.00   0.00   0.00   9.72   2.18
   15 217   141   140   60.6   50.4   1.55   0.36   75.9    2.3    5.8    0.4   0.36   1.38    0.00    0.00   0.00   0.00   0.00   0.00   9.56   2.11
   15 218   142   141   60.9   51.0   1.56   0.35   76.0    2.2    5.6    0.3   0.35   1.37    0.00    0.00   0.00   0.00   0.00   0.00   9.41   2.04
   15 219   143   142   61.2   51.6   1.57   0.33   76.1    2.2    5.5    0.3   0.33   1.36    0.00    0.00   0.00   0.06   0.12   0.12   9.28   1.97
   15 220   144   143   61.3   52.0   1.58   0.32   76.1    2.1    5.3    0.3   0.32   1.39    0.00    0.00   0.00   0.12   0.22   0.22   9.36   1.90
   15 221   145   144   61.3   52.1   1.58   0.32   76.2    2.1    5.2    0.3   0.32   1.42    0.00    0.00   0.00   0.17   0.31   0.31   9.47   1.89
   15 222   146   145   61.3   52.1   1.58   0.32   76.3    2.1    5.2    0.3   0.32   1.46    0.00    0.00   0.00   0.04   0.08   0.08   9.60   1.89
   15 223   147   146   61.3   52.1   1.58   0.32   76.4    2.1    5.2    0.3   0.32   1.49    0.00    0.00   0.00   0.00   0.00   0.00   9.74   1.89
   15 224   148   147   61.3   52.1   1.58   0.32   76.4    2.1    5.2    0.3   0.32   1.49    0.00    0.00   0.00   0.00   0.00   0.00   9.64   1.89
   15 225   149   148   61.3   52.1   1.58   0.32   76.4    2.1    5.2    0.3   0.32   1.49    0.00    0.00   0.00   0.00   0.00   0.00   9.64   1.89
   15 226   150   149   61.3   52.1   1.58   0.32   76.4    2.1    5.2    0.3   0.32   1.49    0.00    0.00   0.00   0.00   0.00   0.00   9.64   1.89
   15 227   151   150   61.3   52.1   1.58   0.32   76.4    2.1    5.2    0.3   0.32   1.49    0.00    0.00   0.00   0.00   0.00   0.00   9.64   1.89
   15 228   152   151   61.3   52.1   1.58   0.32   76.4    2.1    5.2    0.3   0.32   1.49    0.00    0.00   0.00   0.00   0.00   0.00   9.64   1.89
   15 229   153   152   61.3   52.1   1.58   0.32   76.4    2.1    5.2    0.3   0.32   1.49    0.00    0.00   0.00   0.00   0.00   0.00   9.64   1.89
   15 230   154   153   61.3   52.1   1.58   0.32   76.4    2.1    5.2    0.3   0.32   1.49    0.00    0.00   0.00   0.00   0.00   0.00   9.64   1.89
   15 231   155   154   61.3   52.1   1.58   0.32   76.4    2.1    5.2    0.3   0.32   1.49    0.00    0.00   0.00   0.00   0.00   0.00   9.64   1.89
   15 232   156   155   61.3   52.1   1.58   0.32   76.4    2.1    5.2    0.3   0.32   1.49    0.00    0.00   0.00   0.00   0.00   0.00   9.64   1.89
   15 233   157   156   61.3   52.1   1.58   0.32   76.4    2.1    5.2    0.3   0.32   1.49    0.00    0.00   0.00   0.00   0.00   0.00   9.64   1.89
   15 234   158   157   61.3   52.1   1.58   0.32   76.4    2.1    5.2    0.3   0.32   1.49    0.00    0.00   0.00   0.00   0.00   0.00   9.64   1.89
   15 235   159   158   61.3   52.1   1.58   0.32   76.4    2.1    5.2    0.3   0.32   1.49    0.00    0.00   0.00   0.00   0.00   0.00   9.64   1.89
   15 236   160   159   61.3   52.1   1.58   0.32   76.4    2.1    5.2    0.3   0.32   1.49    0.00    0.00   0.00   0.00   0.00   0.00   9.64   1.89
   15 237   161   160   61.3   52.1   1.58   0.32   76.4    2.1    5.2    0.3   0.32   1.49    0.00    0.00   0.00   0.00   0.00   0.00   9.64   1.89

*DSSAT Cropping System Model Ver. 4.8.5.000 -release  FEB 02, 2026 11:46:55

*RUN   4        : 4                         WHAPS048 TUDU1501    4
 MODEL          : WHAPS048 - Wheat
 EXPERIMENT     : TUDU1501 WH
 DATA PATH      :
 TREATMENT  4   : 4                         WHAPS048
  
@YEAR DOY   DAS   DAP   CNAD   GNAD   GN%D   VN%D   NUPC   LNAD   SNAD   LN%D   SN%D   RN%D   SNN0C   SNN1C NFact1 NFact2 NFact3 NFact4  RootN lfshthN
   15 077     1     0    0.0    0.0   0.00   0.00    0.0    0.0    0.0    0.0   0.00   0.00    0.00    0.00   0.00   0.00   0.00   0.00   0.00   0.00
   15 078     2     1    0.0    0.0   0.00   0.00    0.0    0.0    0.0    0.0   0.00   0.00    0.00    0.00   0.00   0.00   0.00   0.00   0.00   0.00
   15 079     3     2    0.0    0.0   0.00   0.00    0.0    0.0    0.0    0.0   0.00   0.00    0.00    0.00   0.00   0.00   0.00   0.00   0.00   0.00
   15 080     4     3    0.0    0.0   0.00   0.00    0.0    0.0    0.0    0.0   0.00   0.00    0.00    0.00   0.00   0.00   0.00   0.00   0.00   0.00
   15 081     5     4    0.0    0.0   0.00   0.00    0.0    0.0    0.0    0.0   0.00   0.00    0.00    0.00   0.00   0.00   0.00   0.00   0.00   0.00
   15 082     6     5    0.0    0.0   0.00   0.00    0.0    0.0    0.0    0.0   0.00   0.00    0.00    0.00   0.00   0.00   0.00   0.00   0.00   0.00
   15 083     7     6    0.0    0.0   0.00   0.00    0.0    0.0    0.0    0.0   0.00   0.00    0.00    0.00   0.00   0.00   0.00   0.00   0.00   0.00
   15 084     8     7    0.0    0.0   0.00   0.00    0.0    0.0    0.0    0.0   0.00   0.00    0.00    0.00   0.00   0.00   0.00   0.00   0.00   0.00
   15 085     9     8    0.0    0.0   0.00   0.00    0.0    0.0    0.0    0.0   0.00   0.00    0.00    0.00   0.00   0.00   0.00   0.00   0.00   0.00
   15 086    10     9    0.0    0.0   0.00   0.00    0.0    0.0    0.0    0.0   0.00   0.00    0.00    0.00   0.00   0.00   0.00   0.00   0.00   0.00
   15 087    11    10    0.0    0.0   0.00   0.00    0.0    0.0    0.0    0.0   0.00   0.00    0.00    0.00   0.00   0.00   0.00   0.00   0.00   0.00
   15 088    12    11    0.0    0.0   0.00   0.00    0.0    0.0    0.0    0.0   0.00   0.00    0.00    0.00   0.00   0.00   0.00   0.00   0.00   0.00
   15 089    13    12    1.0    0.0   0.00   9.37    0.2    0.6    0.0    5.8   6.34   4.42    0.00    0.00   0.00   0.00   0.00   0.00   1.07   0.41
   15 090    14    13    1.1    0.0   0.00   8.08    0.2    0.6    0.0    5.4   6.34   4.32    0.00    0.00   0.00   0.00   0.00   0.00   1.06   0.41
   15 091    15    14    1.2    0.0   0.00   8.40    0.3    0.7    0.0    6.1   6.34   4.20    0.00    0.00   0.00   0.00   0.00   0.00   1.05   0.41
   15 092    16    15    1.2    0.0   0.00   8.08    0.4    0.8    0.0    6.1   6.34   4.11    0.00    0.00   0.00   0.00   0.00   0.00   1.04   0.41
   15 093    17    16    1.2    0.0   0.00   7.19    0.4    0.8    0.0    5.7   6.34   3.92    0.00    0.00   0.00   0.00   0.00   0.00   1.03   0.41
   15 094    18    17    1.3    0.0   0.00   7.16    0.4    0.9    0.0    6.0   6.34   3.84    0.00    0.00   0.00   0.00   0.00   0.00   1.02   0.41
   15 095    19    18    1.3    0.0   0.00   7.02    0.5    0.9    0.0    6.0   6.34   3.73    0.00    0.00   0.00   0.00   0.00   0.00   1.01   0.41
   15 096    20    19    1.4    0.0   0.00   6.83    0.5    0.9    0.0    6.0   6.34   3.62    0.00    0.00   0.00   0.00   0.00   0.00   1.00   0.41
   15 097    21    20    1.4    0.0   0.00   6.37    0.5    0.9    0.0    5.8   6.34   3.40    0.00    0.00   0.00   0.00   0.00   0.00   0.99   0.41
   15 098    22    21    1.4    0.0   0.00   5.31    0.6    1.0    0.0    5.1   6.34   3.20    0.00    0.00   0.00   0.00   0.00   0.00   0.98   0.41
   15 099    23    22    1.6    0.0   0.00   4.37    0.8    1.2    0.0    4.4   6.34   2.94    0.00    0.00   0.00   0.00   0.00   0.00   0.97   0.44
   15 100    24    23    2.3    0.0   0.00   4.95    1.4    1.6    0.0    5.1   6.34   2.71    0.00    0.00   0.20   0.47   0.72   0.72   0.96   0.62
   15 101    25    24    2.8    0.0   0.00   4.79    1.9    1.9    0.0    4.8   6.34   2.48    0.00    0.00   0.00   0.29   0.50   0.50   0.95   0.82
   15 102    26    25    3.4    0.0   0.00   4.84    2.6    2.4    0.0    4.9   6.34   2.24    0.00    0.00   0.00   0.33   0.55   0.55   0.94   1.02
   15 103    27    26    4.2    0.0   0.00   4.84    3.3    2.8    0.0    4.9   6.34   2.00    0.00    0.00   0.00   0.30   0.51   0.51   0.93   1.29
   15 104    28    27    4.6    0.0   0.00   4.38    3.8    3.1    0.0    4.5   6.34   1.78    0.00    0.00   0.00   0.29   0.49   0.49   0.95   1.48
   15 105    29    28    4.9    0.0   0.00   3.88    4.1    3.2    0.0    4.1   6.34   1.55    0.00    0.00   0.11   0.41   0.65   0.65   0.97   1.62
   15 106    30    29    5.2    0.0   0.00   3.63    4.4    3.4    0.0    3.8   6.34   1.47    0.00    0.00   0.32   0.55   0.79   0.79   0.99   1.77
   15 107    31    30    8.5    0.0   0.00   5.51    8.1    5.2    0.0    5.4   6.34   1.93    0.00    0.00   0.42   0.61   0.85   0.85   1.37   3.25
   15 108    32    31    9.3    0.0   0.00   5.70    9.1    5.7    0.0    5.7   6.34   2.01    0.00    0.00   0.00   0.03   0.05   0.05   1.59   3.59
   15 109    33    32   10.0    0.0   0.00   5.65   10.0    6.0    0.0    5.6   6.34   1.99    0.00    0.00   0.00   0.00   0.00   0.00   1.80   3.91
   15 110    34    33   11.0    0.0   0.00   5.57   11.5    6.6    0.0    5.5   6.34   1.96    0.00    0.00   0.00   0.00   0.00   0.00   2.17   4.45
   15 111    35    34   12.7    0.0   0.00   5.48   13.7    7.4    0.0    5.4   6.34   1.94    0.00    0.00   0.00   0.00   0.00   0.00   2.74   5.25
   15 112    36    35   14.6    0.0   0.00   5.42   16.3    8.4    0.0    5.4   6.34   1.93    0.00    0.00   0.00   0.00   0.00   0.00   3.39   6.15
   15 113    37    36   15.5    0.0   0.00   5.45   17.5    8.9    0.0    5.4   6.34   1.95    0.00    0.00   0.00   0.00   0.00   0.00   3.66   6.55
   15 114    38    37   16.9    0.0   0.00   5.35   19.4    9.6    0.0    5.3   6.34   1.93    0.00    0.00   0.00   0.00   0.00   0.00   4.16   7.24
[...]
   15 105    29    28    4.2    0.0   0.00   3.62    3.4    2.8    0.0    3.8   6.34   1.63    0.00    0.00   0.31   0.54   0.79   0.79   0.95   1.36
   15 106    30    29    4.5    0.0   0.00   3.45    3.6    3.0    0.0    3.6   6.34   1.55    0.00    0.00   0.44   0.63   0.86   0.86   0.96   1.49
   15 107    31    30    4.9    0.0   0.00   3.52    4.1    3.2    0.0    3.7   6.34   1.54    0.00    0.00   0.50   0.67   0.89   0.89   0.99   1.67
   15 108    32    31    5.5    0.0   0.00   3.82    4.8    3.5    0.0    3.9   6.34   1.55    0.00    0.00   0.47   0.65   0.87   0.87   1.07   1.95
   15 109    33    32    6.2    0.0   0.00   4.04    5.6    3.9    0.0    4.2   6.34   1.53    0.00    0.00   0.32   0.54   0.79   0.79   1.17   2.24
   15 110    34    33    6.7    0.0   0.00   4.04    6.2    4.2    0.0    4.1   6.34   1.42    0.00    0.00   0.20   0.47   0.72   0.72   1.26   2.49
   15 111    35    34    7.3    0.0   0.00   3.92    6.9    4.5    0.0    4.0   6.34   1.31    0.00    0.00   0.19   0.46   0.71   0.71   1.37   2.73
   15 112    36    35    7.7    0.0   0.00   3.80    7.5    4.8    0.0    3.9   6.34   1.22    0.00    0.00   0.23   0.49   0.74   0.74   1.49   2.96
   15 113    37    36    8.3    0.0   0.00   3.85    8.2    5.0    0.0    4.0   6.34   1.24    0.00    0.00   0.28   0.52   0.77   0.77   1.62   3.20
   15 114    38    37    8.8    0.0   0.00   3.78    8.8    5.3    0.0    3.9   6.34   1.20    0.00    0.00   0.24   0.49   0.74   0.74   1.75   3.43
   15 115    39    38    9.3    0.0   0.00   3.67    9.5    5.6    0.0    3.8   6.34   1.18    0.00    0.00   0.26   0.51   0.76   0.76   1.88   3.67
   15 116    40    39    9.8    0.0   0.00   3.48   10.2    5.8    0.0    3.6   6.34   1.11    0.00    0.00   0.29   0.53   0.78   0.78   2.02   3.93
   15 117    41    40   10.4    0.0   0.00   3.41   11.0    6.2    0.0    3.5   6.34   1.09    0.00    0.00   0.37   0.58   0.82   0.82   2.21   4.23
   15 118    42    41   11.1    0.0   0.00   3.45   11.8    6.5    0.0    3.6   6.34   1.12    0.00    0.00   0.40   0.60   0.84   0.84   2.39   4.53
   15 119    43    42   11.7    0.0   0.00   3.52   12.7    6.8    0.0    3.6   6.34   1.16    0.00    0.00   0.37   0.58   0.82   0.82   2.58   4.84
   15 120    44    43   12.3    0.0   0.00   3.49   13.5    7.2    0.0    3.6   6.34   1.15    0.00    0.00   0.32   0.55   0.79   0.79   2.76   5.14
   15 121    45    44   12.7    0.0   0.00   3.44   14.1    7.4    0.0    3.5   6.34   1.14    0.00    0.00   0.32   0.55   0.80   0.80   2.87   5.34
   15 122    46    45   13.1    0.0   0.00   3.35   14.6    7.6    0.0    3.4   6.34   1.11    0.00    0.00   0.34   0.56   0.80   0.80   2.97   5.51
   15 123    47    46   13.4    0.0   0.00   3.20   15.0    7.7    0.0    3.3   6.34   1.09    0.00    0.00   0.37   0.58   0.82   0.82   3.04   5.66
   15 124    48    47   13.9    0.0   0.00   3.06   15.6    8.0    0.0    3.2   6.34   1.04    0.00    0.00   0.43   0.62   0.86   0.86   3.15   5.87
   15 125    49    48   14.3    0.0   0.00   2.95   16.2    8.2    0.0    3.0   6.34   1.04    0.00    0.00   0.49   0.66   0.88   0.88   3.25   6.10
   15 126    50    49   14.6    0.0   0.00   2.89   16.5    8.3    0.0    3.0   6.34   1.01    0.00    0.00   0.54   0.70   0.91   0.91   3.30   6.22
   15 127    51    50   15.0    0.0   0.00   2.84   17.0    8.5    0.0    2.9   6.34   0.99    0.00    0.00   0.56   0.71   0.92   0.92   3.39   6.40
   15 128    52    51   15.4    0.0   0.00   2.80   17.6    8.8    0.0    2.9   6.34   0.97    0.00    0.00   0.58   0.72   0.92   0.92   3.51   6.61
   15 129    53    52   15.8    0.0   0.00   2.77   18.2    9.0    0.0    2.9   6.34   0.95    0.00    0.00   0.59   0.72   0.92   0.92   3.63   6.82
   15 130    54    53   16.3    0.0   0.00   2.75   18.8    9.2    0.0    2.8   6.34   0.95    0.00    0.00   0.59   0.73   0.93   0.93   3.77   7.04
   15 131    55    54   16.8    0.0   0.00   2.73   19.5    9.5    0.0    2.8   6.34   0.94    0.00    0.00   0.59   0.72   0.92   0.92   3.91   7.27
   15 132    56    55   17.2    0.0   0.00   2.67   20.1    9.7    0.0    2.8   6.34   0.92    0.00    0.00   0.58   0.72   0.92   0.92   4.05   7.49
   15 133    57    56   17.7    0.0   0.00   2.62   20.8    9.9    0.0    2.7   6.34   0.90    0.00    0.00   0.60   0.73   0.93   0.93   4.20   7.72
   15 134    58    57   18.2    0.0   0.00   2.60   21.5   10.2    0.0    2.7   6.34   0.89    0.00    0.00   0.61   0.74   0.93   0.93   4.37   7.96
   15 135    59    58   18.7    0.0   0.00   2.59   22.2   10.4    0.0    2.7   1.08   0.92    0.00    0.00   0.61   0.74   0.93   0.93   4.52   8.20
   15 136    60    59   19.2    0.0   0.00   2.49   22.8   10.7    0.1    2.6   0.59   0.92    0.00    0.00   0.60   0.73   0.93   0.93   4.64   8.43
   15 137    61    60   19.6    0.0   0.00   2.45   23.5   10.9    0.1    2.6   0.58   0.93    0.00    0.00   0.65   0.77   0.95   0.95   4.76   8.65
   15 138    62    61   20.1    0.0   0.00   2.37   24.1   11.1    0.1    2.5   0.55   0.93    0.00    0.00   0.66   0.77   0.95   0.95   4.87   8.87
   15 139    63    62   20.6    0.0   0.00   2.36   24.7   11.3    0.2    2.5   0.60   0.94    0.00    0.00   0.70   0.80   0.96   0.96   4.97   9.07
   15 140    64    63   21.0    0.0   0.00   2.36   25.2   11.5    0.2    2.5   0.66   0.96    0.00    0.00   0.69   0.80   0.96   0.96   5.05   9.25
   15 141    65    64   21.3    0.0   0.00   2.34   25.7   11.6    0.3    2.5   0.67   0.96    0.00    0.00   0.68   0.78   0.95   0.95   5.12   9.41
   15 142    66    65   21.7    0.0   0.00   2.29   26.2   11.8    0.3    2.5   0.65   0.96    0.00    0.00   0.68   0.79   0.95   0.95   5.19   9.57
   15 143    67    66   22.1    0.0   0.00   2.26   26.7   12.0    0.4    2.4   0.66   0.96    0.00    0.00   0.71   0.80   0.96   0.96   5.26   9.73
   15 144    68    67   22.4    0.0   0.00   2.24   27.2   12.1    0.4    2.4   0.67   0.96    0.00    0.00   0.71   0.81   0.96   0.96   5.32   9.88
   15 145    69    68   22.8    0.0   0.00   2.21   27.6   12.2    0.5    2.4   0.67   0.96    0.00    0.00   0.71   0.81   0.96   0.96   5.38  10.03
   15 146    70    69   23.1    0.0   0.00   2.19   28.1   12.4    0.6    2.4   0.69   0.97    0.00    0.00   0.72   0.81   0.96   0.96   5.44  10.18
   15 147    71    70   23.5    0.0   0.00   2.16   28.6   12.5    0.6    2.4   0.70   0.97    0.00    0.00   0.72   0.81   0.97   0.97   5.50  10.32
   15 148    72    71   23.9    0.0   0.00   2.11   29.1   12.7    0.7    2.3   0.68   0.96    0.00    0.00   0.72   0.82   0.97   0.97   5.56  10.47
   15 149    73    72   24.2    0.0   0.00   2.08   29.6   12.8    0.8    2.3   0.69   0.96    0.00    0.00   0.74   0.83   0.97   0.97   5.62  10.61
   15 150    74    73   24.6    0.0   0.00   2.06   30.1   12.9    0.9    2.3   0.70   0.96    0.00    0.00   0.75   0.83   0.97   0.97   5.69  10.75
   15 151    75    74   25.0    0.0   0.00   2.03   30.6   13.1    1.0    2.3   0.70   0.96    0.00    0.00   0.74   0.83   0.97   0.97   5.75  10.89
   15 152    76    75   25.4    0.0   0.00   2.01   31.1   13.2    1.1    2.3   0.71   0.96    0.00    0.00   0.74   0.83   0.97   0.97   5.82  11.03
   15 153    77    76   25.7    0.0   0.00   1.98   31.6   13.3    1.2    2.3   0.71   0.95    0.00    0.00   0.73   0.82   0.97   0.97   5.90  11.16
   15 154    78    77   26.1    0.0   0.00   1.94   32.1   13.5    1.4    2.2   0.71   0.95    0.00    0.00   0.72   0.81   0.97   0.97   5.97  11.30
   15 155    79    78   26.5    0.0   0.00   1.91   32.7   13.6    1.5    2.2   0.71   0.95    0.00    0.00   0.72   0.81   0.96   0.96   6.06  11.43
   15 156    80    79   26.9    0.0   0.00   1.89   33.2   13.7    1.7    2.2   0.71   0.95    0.00    0.00   0.71   0.81   0.96   0.96   6.16  11.56
   15 157    81    80   27.4    0.0   0.00   1.87   33.9   13.8    1.9    2.2   0.73   0.95    0.00    0.00   0.70   0.80   0.96   0.96   6.28  11.70
   15 158    82    81   27.9    0.0   0.00   1.84   34.5   13.9    2.1    2.2   0.74   0.96    0.00    0.00   0.67   0.78   0.95   0.95   6.40  11.83
   15 159    83    82   28.4    0.0   0.00   1.85   35.3   14.1    2.3    2.2   0.79   0.98    0.00    0.00   0.66   0.77   0.95   0.95   6.58  11.98
   15 160    84    83   29.0    0.0   0.00   1.86   36.2   14.2    2.7    2.2   0.83   1.01    0.00    0.00   0.62   0.74   0.93   0.93   6.78  12.13
   15 161    85    84   29.6    0.0   0.00   1.85   37.0   14.3    3.0    2.2   0.85   1.04    0.00    0.00   0.53   0.69   0.90   0.90   7.00  12.26
   15 162    86    85   30.1    0.0   0.00   1.82   37.9   14.3    3.4    2.2   0.82   1.05    0.00    0.00   0.45   0.63   0.86   0.86   7.21  12.35
   15 163    87    86   30.7    0.0   0.00   1.76   38.7   14.4    3.9    2.2   0.77   1.06    0.00    0.00   0.39   0.60   0.84   0.84   7.41  12.41
   15 164    88    87   31.2    0.0   0.00   1.71   39.5   14.4    4.4    2.2   0.76   1.07    0.00    0.00   0.40   0.60   0.84   0.84   7.63  12.43
   15 165    89    88   31.7    0.0   0.00   1.66   40.3   14.4    4.9    2.2   0.74   1.07    0.00    0.00   0.38   0.58   0.83   0.83   7.82  12.44
   15 166    90    89   32.2    0.0   0.00   1.65   41.1   14.4    5.5    2.2   0.77   1.09    0.00    0.00   0.40   0.60   0.84   0.84   8.01  12.44
   15 167    91    90   32.9    0.0   0.00   1.62   42.0   14.4    6.1    2.2   0.77   1.10    0.00    0.00   0.34   0.56   0.81   0.81   8.23  12.44
   15 168    92    91   33.5    0.0   0.00   1.58   43.0   14.4    6.7    2.2   0.77   1.11    0.00    0.00   0.33   0.55   0.80   0.80   8.45  12.44
   15 169    93    92   34.1    0.0   0.00   1.58   43.9   14.4    7.3    2.2   0.79   1.13    0.00    0.00   0.34   0.56   0.80   0.80   8.64  12.44
   15 170    94    93   34.7    0.0   0.00   1.55   44.8   14.4    7.9    2.2   0.80   1.14    0.00    0.00   0.27   0.51   0.76   0.76   8.83  12.44
   15 171    95    94   35.4    0.0   0.00   1.53   45.7   14.4    8.6    2.2   0.80   1.15    0.00    0.00   0.25   0.50   0.75   0.75   9.02  12.44
   15 172    96    95   36.0    0.0   0.00   1.51   46.6   14.4    9.2    2.2   0.80   1.15    0.00    0.00   0.21   0.48   0.73   0.73   9.20  12.44
   15 173    97    96   36.5    0.0   0.00   1.48   47.4   14.4    9.7    2.2   0.79   1.15    0.00    0.00   0.17   0.44   0.69   0.69   9.34  12.44
   15 174    98    97   37.1    0.0   0.00   1.45   48.2   14.4   10.3    2.2   0.78   1.15    0.00    0.00   0.16   0.44   0.68   0.68   9.48  12.44
   15 175    99    98   37.7    0.0   0.00   1.41   49.0   14.4   10.9    2.2   0.76   1.14    0.00    0.00   0.16   0.44   0.68   0.68   9.63  12.44
   15 176   100    99   38.4    0.0   0.00   1.38   49.9   14.4   11.6    2.2   0.75   1.15    0.00    0.00   0.16   0.44   0.68   0.68   9.78  12.44
   15 177   101   100   39.0    0.0   0.00   1.34   50.7   14.4   12.2    2.2   0.73   1.15    0.00    0.00   0.11   0.41   0.65   0.65   9.91  12.44
   15 178   102   101   39.5    0.0   0.00   1.32   51.6   14.4   12.7    2.2   0.73   1.16    0.00    0.00   0.00   0.32   0.54   0.54  10.04  12.44
   15 179   103   102   40.1    0.0   0.00   1.28   52.4   14.4   13.3    2.2   0.71   1.16    0.00    0.00   0.00   0.17   0.32   0.32  10.17  12.44
   15 180   104   103   40.7    0.0   0.00   1.25   53.1   14.4   13.9    2.2   0.69   1.17    0.00    0.00   0.00   0.03   0.05   0.05  10.30  12.44
   15 181   105   104   41.2    0.0   0.00   1.22   53.9   14.4   14.4    2.2   0.68   1.17    0.00    0.00   0.00   0.00   0.00   0.00  10.43  12.44
   15 182   106   105   41.7    0.0   0.00   1.19   54.7   14.4   14.9    2.2   0.66   1.18    0.00    0.00   0.00   0.00   0.00   0.00  10.57  12.44
   15 183   107   106   42.2    0.0   0.00   1.16   55.4   14.4   15.4    2.2   0.64   1.19    0.00    0.00   0.00   0.00   0.00   0.00  10.72  12.44
   15 184   108   107   42.6    0.0   0.00   1.14   56.1   14.4   15.8    2.2   0.63   1.21    0.00    0.00   0.00   0.00   0.00   0.00  10.88  12.44
   15 185   109   108   43.0    0.0   0.00   1.12   56.7   14.4   16.2    2.2   0.62   1.23    0.00    0.00   0.00   0.00   0.00   0.00  11.07  12.44
   15 186   110   109   43.2   10.7   2.21   0.95   57.4   11.6   16.4    1.8   0.75   1.27    0.00    0.00   0.00   0.00   0.00   0.00  11.44   4.53
   15 187   111   110   43.2   13.1   1.93   0.90   58.0    9.7   16.0    1.5   0.77   1.32    0.00    0.00   0.00   0.00   0.00   0.00  11.91   4.40
   15 188   112   111   43.3   16.0   1.78   0.86   58.7    7.8   15.3    1.2   0.78   1.37    0.00    0.00   0.00   0.00   0.00   0.00  12.35   4.24
   15 189   113   112   43.3   17.8   1.70   0.81   59.5    6.8   14.6    1.0   0.77   1.45    0.00    0.00   0.00   0.00   0.00   0.00  13.06   4.15
   15 190   114   113   43.4   19.4   1.65   0.77   60.2    6.0   13.9    0.9   0.75   1.52    0.00    0.00   0.00   0.00   0.00   0.00  13.62   4.08
   15 191   115   114   43.7   21.2   1.60   0.73   60.9    5.3   13.2    0.8   0.72   1.55    0.00    0.00   0.00   0.00   0.00   0.00  13.83   4.00
   15 192   116   115   44.5   23.1   1.56   0.71   61.5    4.9   12.6    0.8   0.70   1.52    0.00    0.00   0.00   0.00   0.00   0.00  13.47   3.92
   15 193   117   116   45.3   24.8   1.54   0.68   62.1    4.6   12.1    0.7   0.69   1.50    0.00    0.00   0.00   0.00   0.00   0.00  13.19   3.83
   15 194   118   117   46.0   26.3   1.51   0.67   62.7    4.3   11.6    0.7   0.68   1.48    0.00    0.00   0.00   0.00   0.00   0.00  12.96   3.75
   15 195   119   118   46.6   27.7   1.50   0.65   63.3    4.2   11.0    0.6   0.66   1.47    0.00    0.00   0.00   0.00   0.00   0.00  12.76   3.67
   15 196   120   119   47.2   29.0   1.48   0.63   63.8    4.0   10.6    0.6   0.64   1.47    0.00    0.00   0.00   0.00   0.00   0.00  12.58   3.59
   15 197   121   120   47.7   30.2   1.47   0.61   64.3    3.9   10.2    0.6   0.61   1.46    0.00    0.00   0.00   0.00   0.00   0.00  12.41   3.50
   15 198   122   121   48.3   31.3   1.46   0.59   64.8    3.8    9.8    0.6   0.60   1.45    0.00    0.00   0.00   0.00   0.00   0.00  12.23   3.42
   15 199   123   122   48.8   32.3   1.46   0.57   65.3    3.7    9.5    0.6   0.58   1.45    0.00    0.00   0.00   0.00   0.00   0.00  12.06   3.34
   15 200   124   123   49.3   33.2   1.46   0.56   65.7    3.6    9.2    0.6   0.56   1.44    0.00    0.00   0.00   0.00   0.00   0.00  11.89   3.26
   15 201   125   124   49.8   34.2   1.45   0.54   66.1    3.5    8.9    0.5   0.54   1.44    0.00    0.00   0.00   0.00   0.00   0.00  11.73   3.18
   15 202   126   125   50.2   35.1   1.44   0.53   66.6    3.4    8.6    0.5   0.53   1.43    0.00    0.00   0.00   0.00   0.00   0.00  11.57   3.10
   15 203   127   126   50.7   35.9   1.44   0.51   67.0    3.3    8.4    0.5   0.51   1.43    0.00    0.00   0.00   0.00   0.00   0.00  11.41   3.02
   15 204   128   127   51.1   36.8   1.44   0.50   67.3    3.2    8.2    0.5   0.50   1.42    0.00    0.00   0.00   0.00   0.00   0.00  11.26   2.94
   15 205   129   128   51.5   37.6   1.44   0.48   67.7    3.1    7.9    0.5   0.49   1.42    0.00    0.00   0.00   0.00   0.00   0.00  11.11   2.86
   15 206   130   129   51.9   38.3   1.43   0.47   68.1    3.1    7.7    0.5   0.47   1.41    0.00    0.00   0.00   0.00   0.00   0.00  10.97   2.79
   15 207   131   130   52.3   39.0   1.43   0.46   68.4    3.0    7.6    0.5   0.45   1.41    0.00    0.00   0.00   0.00   0.00   0.00  10.82   2.72
   15 208   132   131   52.7   39.7   1.42   0.45   68.8    2.9    7.4    0.4   0.44   1.40    0.00    0.00   0.00   0.00   0.00   0.00  10.69   2.65
   15 209   133   132   53.0   40.3   1.42   0.44   69.1    2.8    7.3    0.4   0.43   1.40    0.00    0.00   0.00   0.00   0.00   0.00  10.58   2.59
   15 210   134   133   53.4   40.9   1.42   0.43   69.5    2.8    7.1    0.4   0.43   1.40    0.00    0.00   0.00   0.00   0.00   0.00  10.48   2.53
   15 211   135   134   53.7   41.5   1.41   0.42   69.8    2.7    7.0    0.4   0.42   1.40    0.00    0.00   0.00   0.00   0.00   0.00  10.35   2.47
   15 212   136   135   54.1   42.1   1.41   0.41   70.1    2.7    6.8    0.4   0.41   1.39    0.00    0.00   0.00   0.00   0.00   0.00  10.21   2.42
   15 213   137   136   54.4   42.7   1.41   0.40   70.4    2.6    6.7    0.4   0.40   1.39    0.00    0.00   0.00   0.00   0.00   0.00  10.08   2.36
   15 214   138   137   54.7   43.4   1.41   0.39   70.7    2.5    6.5    0.4   0.39   1.38    0.00    0.00   0.00   0.00   0.00   0.00   9.96   2.30
   15 215   139   138   55.0   44.0   1.40   0.38   71.0    2.5    6.3    0.4   0.38   1.38    0.00    0.00   0.00   0.00   0.00   0.00   9.84   2.24
   15 216   140   139   55.3   44.6   1.40   0.37   71.3    2.4    6.1    0.4   0.37   1.38    0.00    0.00   0.00   0.00   0.00   0.00   9.72   2.18
   15 217   141   140   55.6   45.3   1.40   0.36   71.6    2.3    5.9    0.4   0.36   1.37    0.00    0.00   0.00   0.00   0.00   0.00   9.60   2.11
   15 218   142   141   55.9   46.0   1.41   0.35   71.8    2.2    5.7    0.3   0.35   1.37    0.00    0.00   0.00   0.00   0.00   0.00   9.47   2.04
   15 219   143   142   56.2   46.6   1.42   0.33   71.9    2.2    5.5    0.3   0.33   1.37    0.00    0.00   0.00   0.03   0.06   0.06   9.35   1.97
   15 220   144   143   56.3   47.0   1.43   0.32   72.1    2.1    5.3    0.3   0.32   1.40    0.00    0.00   0.00   0.11   0.20   0.20   9.46   1.90
   15 221   145   144   56.3   47.1   1.43   0.32   72.3    2.1    5.2    0.3   0.32   1.43    0.00    0.00   0.00   0.16   0.29   0.29   9.58   1.89
   15 222   146   145   56.3   47.1   1.43   0.32   72.4    2.1    5.3    0.3   0.32   1.46    0.00    0.00   0.00   0.03   0.06   0.06   9.72   1.89
   15 223   147   146   56.3   47.1   1.43   0.32   72.6    2.1    5.3    0.3   0.32   1.50    0.00    0.00   0.00   0.00   0.00   0.00   9.87   1.89
   15 224   148   147   56.3   47.1   1.43   0.32   72.6    2.1    5.3    0.3   0.32   1.50    0.00    0.00   0.00   0.00   0.00   0.00   9.77   1.89
   15 225   149   148   56.3   47.1   1.43   0.32   72.6    2.1    5.3    0.3   0.32   1.50    0.00    0.00   0.00   0.00   0.00   0.00   9.77   1.89
   15 226   150   149   56.3   47.1   1.43   0.32   72.6    2.1    5.3    0.3   0.32   1.50    0.00    0.00   0.00   0.00   0.00   0.00   9.77   1.89
   15 227   151   150   56.3   47.1   1.43   0.32   72.6    2.1    5.3    0.3   0.32   1.50    0.00    0.00   0.00   0.00   0.00   0.00   9.77   1.89
   15 228   152   151   56.3   47.1   1.43   0.32   72.6    2.1    5.3    0.3   0.32   1.50    0.00    0.00   0.00   0.00   0.00   0.00   9.77   1.89
   15 229   153   152   56.3   47.1   1.43   0.32   72.6    2.1    5.3    0.3   0.32   1.50    0.00    0.00   0.00   0.00   0.00   0.00   9.77   1.89
   15 230   154   153   56.3   47.1   1.43   0.32   72.6    2.1    5.3    0.3   0.32   1.50    0.00    0.00   0.00   0.00   0.00   0.00   9.77   1.89
   15 231   155   154   56.3   47.1   1.43   0.32   72.6    2.1    5.3    0.3   0.32   1.50    0.00    0.00   0.00   0.00   0.00   0.00   9.77   1.89
   15 232   156   155   56.3   47.1   1.43   0.32   72.6    2.1    5.3    0.3   0.32   1.50    0.00    0.00   0.00   0.00   0.00   0.00   9.77   1.89
   15 233   157   156   56.3   47.1   1.43   0.32   72.6    2.1    5.3    0.3   0.32   1.50    0.00    0.00   0.00   0.00   0.00   0.00   9.77   1.89
   15 234   158   157   56.3   47.1   1.43   0.32   72.6    2.1    5.3    0.3   0.32   1.50    0.00    0.00   0.00   0.00   0.00   0.00   9.77   1.89
   15 235   159   158   56.3   47.1   1.43   0.32   72.6    2.1    5.3    0.3   0.32   1.50    0.00    0.00   0.00   0.00   0.00   0.00   9.77   1.89
   15 236   160   159   56.3   47.1   1.43   0.32   72.6    2.1    5.3    0.3   0.32   1.50    0.00    0.00   0.00   0.00   0.00   0.00   9.77   1.89
   15 237   161   160   56.3   47.1   1.43   0.32   72.6    2.1    5.3    0.3   0.32   1.50    0.00    0.00   0.00   0.00   0.00   0.00   9.77   1.89
