*SOIL WATER DAILY OUTPUT FILE

*DSSAT Cropping System Model Ver. 4.8.5.000 -release  FEB 02, 2026 11:46:55

*RUN   1        : 1                         WHAPS048 TUDU1501    1
 MODEL          : WHAPS048 - Wheat
 EXPERIMENT     : TUDU1501 WH
 DATA PATH      :
 TREATMENT  1   : 1                         WHAPS048
  
!                                                                                                                                   Soil water content (mm3/mm3) by soil depth (cm):
!                                                                                                                                   0-5    5-15   15-20   20-30   30-40   40-50   50-60   60-70   70-90  90-110 110-130 130-150 150-170 170-190 190-210
@YEAR DOY   DAS    SWTD    SWXD    ROFC    DRNC    PREC    IR#C    IRRC   LATFC    DTWT    MWTD    TDFD    TDFC    ROFD    ROSD    SW1D    SW2D    SW3D    SW4D    SW5D    SW6D    SW7D    SW8D    SW9D   SW10D   SW11D   SW12D   SW13D   SW14D   SW15D
   15 076     0     545     253       0       0       0       0       0       0     210    0.00     0.0     0.0    0.00    0.00   0.223   0.234   0.249   0.249   0.269   0.269   0.269   0.268   0.268   0.264   0.259   0.259   0.259   0.259   0.259
   15 077     1     542     251       0       0       0       0       0       0     210    0.00     0.0     0.0    0.00    0.00   0.229   0.230   0.246   0.247   0.267   0.267   0.268   0.267   0.267   0.263   0.258   0.258   0.258   0.258   0.258
   15 078     2     539     248       0       0       0       0       0       0     210    0.00     0.0     0.0    0.00    0.00   0.217   0.225   0.243   0.244   0.265   0.266   0.266   0.265   0.266   0.262   0.257   0.258   0.258   0.258   0.258
   15 079     3     538     246       0       0       0       0       0       0     210    0.00     0.0     0.0    0.00    0.00   0.198   0.224   0.242   0.244   0.265   0.266   0.266   0.265   0.266   0.262   0.257   0.258   0.258   0.258   0.258
   15 080     4     538     247       0       0       2       0       0       0     210    0.00     0.0     0.0    0.00    0.00   0.219   0.224   0.242   0.244   0.265   0.265   0.266   0.265   0.266   0.262   0.257   0.258   0.258   0.258   0.258
   15 081     5     538     247       0       0       2       0       0       0     210    0.00     0.0     0.0    0.00    0.00   0.204   0.223   0.242   0.244   0.265   0.265   0.266   0.265   0.266   0.262   0.257   0.258   0.258   0.258   0.258
   15 082     6     537     245       0       0       2       0       0       0     210    0.00     0.0     0.0    0.00    0.00   0.186   0.222   0.241   0.244   0.265   0.265   0.266   0.265   0.266   0.262   0.257   0.258   0.258   0.258   0.258
   15 083     7     536     245       0       0       2       0       0       0     210    0.00     0.0     0.0    0.00    0.00   0.170   0.221   0.241   0.243   0.264   0.265   0.266   0.265   0.266   0.262   0.257   0.258   0.258   0.258   0.258
   15 084     8     535     244       0       0       2       0       0       0     210    0.00     0.0     0.0    0.00    0.00   0.156   0.220   0.241   0.243   0.264   0.265   0.266   0.265   0.266   0.262   0.257   0.257   0.258   0.258   0.258
   15 085     9     534     243       0       0       2       0       0       0     210    0.00     0.0     0.0    0.00    0.00   0.147   0.219   0.240   0.243   0.264   0.265   0.266   0.265   0.266   0.262   0.257   0.257   0.258   0.258   0.258
   15 086    10     534     243       0       0       3       0       0       0     210    0.00     0.0     0.0    0.00    0.00   0.156   0.218   0.240   0.243   0.264   0.265   0.266   0.265   0.266   0.262   0.257   0.257   0.258   0.258   0.258
   15 087    11     534     243       0       0       3       0       0       0     210    0.00     0.0     0.0    0.00    0.00   0.143   0.217   0.239   0.243   0.264   0.265   0.266   0.265   0.266   0.262   0.257   0.257   0.258   0.258   0.258
   15 088    12     533     242       0       0       3       0       0       0     210    0.00     0.0     0.0    0.00    0.00   0.132   0.216   0.239   0.242   0.264   0.265   0.266   0.265   0.266   0.262   0.257   0.257   0.258   0.258   0.258
   15 089    13     539     248       0       0      10       0       0       0     210    0.00     0.0     0.0    0.00    0.00   0.242   0.224   0.239   0.242   0.264   0.265   0.266   0.265   0.266   0.262   0.257   0.257   0.258   0.258   0.258
   15 090    14     540     249       0       0      13       0       0       0     210    0.00     0.0     0.0    0.00    0.00   0.267   0.237   0.237   0.241   0.263   0.264   0.265   0.264   0.265   0.262   0.257   0.257   0.257   0.257   0.258
   15 091    15     541     250       0       0      16       0       0       0     210    0.00     0.0     0.0    0.00    0.00   0.277   0.248   0.246   0.240   0.262   0.263   0.264   0.264   0.264   0.261   0.256   0.257   0.257   0.257   0.257
   15 092    16     544     253       0       0      20       0       0       0     210    0.00     0.0     0.0    0.00    0.00   0.299   0.259   0.263   0.245   0.261   0.262   0.263   0.263   0.264   0.261   0.256   0.256   0.257   0.257   0.257
   15 093    17     541     250       0       0      20       0       0       0     210    0.00     0.0     0.0    0.00    0.00   0.253   0.247   0.254   0.259   0.265   0.261   0.262   0.262   0.263   0.260   0.255   0.256   0.256   0.256   0.256
   15 094    18     544     252       0       0      24       0       0       0     210    0.00     0.0     0.0    0.00    0.00   0.285   0.256   0.263   0.263   0.266   0.261   0.261   0.261   0.262   0.259   0.255   0.255   0.256   0.256   0.256
   15 095    19     541     250       0       0      24       0       0       0     210    0.00     0.0     0.0    0.00    0.00   0.252   0.248   0.256   0.261   0.266   0.270   0.269   0.261   0.262   0.259   0.254   0.255   0.255   0.256   0.256
   15 096    20     540     249       0       0      24       0       0       0     210    0.00     0.0     0.0    0.00    0.00   0.238   0.246   0.252   0.261   0.266   0.270   0.270   0.260   0.261   0.258   0.254   0.255   0.255   0.255   0.256
   15 097    21     537     245       0       0      24       0       0       0     210    0.00     0.0     0.0    0.00    0.00   0.225   0.241   0.249   0.258   0.264   0.268   0.268   0.259   0.260   0.257   0.253   0.254   0.254   0.255   0.255
   15 098    22     535     244       0       0      24       0       0       0     210    0.00     0.0     0.0    0.00    0.00   0.206   0.239   0.249   0.258   0.264   0.268   0.268   0.259   0.260   0.257   0.253   0.254   0.254   0.255   0.255
   15 099    23     534     243       0       0      24       0       0       0     210    0.00     0.0     0.0    0.00    0.00   0.188   0.238   0.248   0.258   0.264   0.268   0.268   0.259   0.260   0.257   0.253   0.254   0.254   0.255   0.255
   15 100    24     533     242       0       0      24       0       0       0     210    0.00     0.0     0.0    0.00    0.00   0.171   0.236   0.248   0.258   0.264   0.268   0.268   0.259   0.260   0.257   0.253   0.254   0.254   0.255   0.255
   15 101    25     532     241       0       0      24       0       0       0     210    0.00     0.0     0.0    0.00    0.00   0.156   0.234   0.247   0.257   0.263   0.268   0.268   0.259   0.260   0.257   0.253   0.254   0.254   0.255   0.255
   15 102    26     531     240       0       0      24       0       0       0     210    0.00     0.0     0.0    0.00    0.00   0.143   0.233   0.247   0.257   0.263   0.268   0.268   0.259   0.260   0.257   0.253   0.254   0.254   0.255   0.255
   15 103    27     531     239       0       0      24       0       0       0     210    0.00     0.0     0.0    0.00    0.00   0.131   0.230   0.246   0.257   0.263   0.268   0.268   0.258   0.260   0.257   0.253   0.254   0.254   0.255   0.255
   15 104    28     530     239       0       0      24       0       0       0     210    0.00     0.0     0.0    0.00    0.00   0.120   0.228   0.246   0.257   0.263   0.268   0.268   0.258   0.260   0.257   0.253   0.254   0.254   0.255   0.255
   15 105    29     529     238       0       0      24       0       0       0     210    0.00     0.0     0.0    0.00    0.00   0.111   0.225   0.245   0.256   0.263   0.268   0.268   0.258   0.260   0.257   0.253   0.254   0.254   0.255   0.255
   15 106    30     528     237       0       0      24       0       0       0     210    0.00     0.0     0.0    0.00    0.00   0.102   0.219   0.244   0.256   0.263   0.268   0.268   0.258   0.260   0.257   0.253   0.254   0.254   0.255   0.255
   15 107    31     549     258       1       0      48       0       0       0     210    0.00     0.0     0.0    0.86    0.00   0.311   0.292   0.296   0.269   0.268   0.269   0.267   0.258   0.259   0.257   0.253   0.253   0.254   0.254   0.255
   15 108    32     546     255       1       0      48       0       0       0     210    0.00     0.0     0.0    0.00    0.00   0.261   0.264   0.271   0.264   0.267   0.270   0.275   0.275   0.272   0.256   0.252   0.253   0.253   0.254   0.254
   15 109    33     543     251       1       0      48       0       0       0     210    0.00     0.0     0.0    0.00    0.00   0.232   0.249   0.258   0.261   0.265   0.269   0.274   0.274   0.274   0.260   0.251   0.252   0.253   0.253   0.254
   15 110    34     538     247       1       0      48       0       0       0     210    0.00     0.0     0.0    0.00    0.00   0.214   0.241   0.251   0.259   0.264   0.267   0.272   0.273   0.272   0.259   0.250   0.251   0.252   0.252   0.253
   15 111    35     537     246       1       0      48       0       0       0     210    0.00     0.0     0.0    0.00    0.00   0.191   0.238   0.250   0.258   0.264   0.267   0.272   0.273   0.272   0.259   0.250   0.251   0.252   0.252   0.253
   15 112    36     535     244       1       0      48       0       0       0     210    0.00     0.0     0.0    0.00    0.00   0.167   0.233   0.248   0.257   0.264   0.267   0.272   0.273   0.272   0.259   0.250   0.251   0.252   0.252   0.253
   15 113    37     533     242       1       0      48       0       0       0     210    0.00     0.0     0.0    0.00    0.00   0.148   0.228   0.246   0.256   0.263   0.267   0.272   0.273   0.272   0.259   0.250   0.251   0.252   0.252   0.253
   15 114    38     532     241       1       0      48       0       0       0     210    0.00     0.0     0.0    0.00    0.00   0.135   0.225   0.244   0.256   0.263   0.267   0.272   0.273   0.272   0.259   0.250   0.251   0.252   0.252   0.253
   15 115    39     531     240       1       0      49       0       0       0     210    0.00     0.0     0.0    0.00    0.00   0.141   0.218   0.241   0.254   0.263   0.267   0.272   0.273   0.272   0.259   0.250   0.251   0.252   0.252   0.253
   15 116    40     531     239       1       0      50       0       0       0     210    0.00     0.0     0.0    0.00    0.00   0.147   0.212   0.239   0.252   0.262   0.267   0.272   0.273   0.272   0.259   0.250   0.251   0.252   0.252   0.253
   15 117    41     534     243       1       0      55       0       0       0     210    0.00     0.0     0.0    0.00    0.00   0.224   0.210   0.236   0.251   0.261   0.267   0.272   0.273   0.272   0.259   0.250   0.251   0.252   0.252   0.253
   15 118    42     537     246       1       0      61       0       0       0     210    0.00     0.0     0.0    0.00    0.00   0.277   0.227   0.232   0.248   0.260   0.266   0.272   0.272   0.272   0.258   0.250   0.251   0.252   0.252   0.253
   15 119    43     535     243       1       0      61       0       0       0     210    0.00     0.0     0.0    0.00    0.00   0.244   0.233   0.229   0.246   0.258   0.265   0.271   0.271   0.271   0.258   0.249   0.250   0.251   0.252   0.252
   15 120    44     533     242       1       0      62       0       0       0     210    0.00     0.0     0.0    0.00    0.00   0.236   0.235   0.226   0.244   0.257   0.264   0.270   0.271   0.270   0.257   0.249   0.250   0.251   0.251   0.252
   15 121    45     558     266       4       0      92       0       0       0     210    0.00     0.0     0.0    3.53    0.00   0.308   0.317   0.322   0.296   0.279   0.273   0.272   0.270   0.270   0.257   0.249   0.250   0.251   0.251   0.252
   15 122    46     558     266       4       0      93       0       0       0     210    0.00     0.0     0.0    0.00    0.00   0.281   0.290   0.322   0.300   0.292   0.284   0.280   0.275   0.270   0.257   0.249   0.250   0.250   0.251   0.252
   15 123    47     567     276       4       0     104       0       0       0     210    0.00     0.0     0.0    0.11    0.00   0.313   0.310   0.322   0.313   0.304   0.296   0.291   0.283   0.273   0.256   0.248   0.249   0.250   0.251   0.252
   15 124    48     565     274       4       0     104       0       0       0     210    0.00     0.0     0.0    0.00    0.00   0.264   0.274   0.284   0.285   0.284   0.282   0.283   0.279   0.274   0.273   0.270   0.268   0.259   0.251   0.251
   15 125    49     566     274       4       0     107       0       0       0     210    0.00     0.0     0.0    0.00    0.00   0.273   0.266   0.289   0.282   0.285   0.285   0.286   0.282   0.277   0.272   0.269   0.267   0.259   0.250   0.251
   15 126    50     585     294       7       0     132       0       0       0     210    0.00     0.0     0.0    2.53    0.00   0.300   0.314   0.319   0.327   0.313   0.301   0.296   0.289   0.279   0.275   0.271   0.267   0.258   0.250   0.251
   15 127    51     574     282       7       9     132       0       0       0     210    0.00     0.0     0.0    0.00    0.00   0.257   0.276   0.282   0.292   0.288   0.285   0.285   0.282   0.277   0.274   0.271   0.268   0.266   0.263   0.262
   15 128    52     563     272       7      16     132       0       0       0     210    0.00     0.0     0.0    0.00    0.00   0.229   0.254   0.262   0.273   0.274   0.275   0.279   0.278   0.276   0.274   0.270   0.268   0.266   0.263   0.262
   15 129    53     563     272       7      16     136       0       0       0     210    0.00     0.0     0.0    0.00    0.00   0.254   0.249   0.262   0.267   0.272   0.274   0.279   0.279   0.278   0.273   0.270   0.267   0.265   0.263   0.262
   15 130    54     560     268       7      17     136       0       0       0     210    0.00     0.0     0.0    0.00    0.00   0.234   0.243   0.254   0.262   0.267   0.271   0.277   0.277   0.277   0.273   0.270   0.268   0.266   0.263   0.262
   15 131    55     556     264       7      17     136       0       0       0     210    0.00     0.0     0.0    0.00    0.00   0.216   0.236   0.247   0.257   0.264   0.268   0.274   0.276   0.277   0.273   0.269   0.267   0.265   0.262   0.262
   15 132    56     551     259       7      17     136       0       0       0     210    0.00     0.0     0.0    0.00    0.00   0.194   0.226   0.239   0.251   0.258   0.264   0.271   0.276   0.276   0.272   0.269   0.267   0.265   0.262   0.261
   15 133    57     550     259       7      17     142       0       0       0     210    0.00     0.0     0.0    0.00    0.00   0.252   0.229   0.227   0.242   0.251   0.258   0.267   0.274   0.276   0.272   0.269   0.267   0.265   0.262   0.261
   15 134    58     547     255       7      17     142       0       0       0     210    0.00     0.0     0.0    0.00    0.00   0.229   0.226   0.221   0.238   0.248   0.255   0.265   0.274   0.275   0.272   0.268   0.267   0.265   0.262   0.261
   15 135    59     545     254       7      17     142       0       0       0     210    0.00     0.0     0.0    0.00    0.00   0.221   0.223   0.218   0.236   0.246   0.253   0.264   0.273   0.275   0.271   0.268   0.266   0.265   0.262   0.261
   15 136    60     543     252       7      17     142       0       0       0     210    0.00     0.0     0.0    0.00    0.00   0.215   0.220   0.216   0.234   0.244   0.252   0.263   0.272   0.275   0.271   0.268   0.266   0.264   0.262   0.261
   15 137    61     541     250       7      17     143       0       0       0     210    0.00     0.0     0.0    0.00    0.00   0.213   0.214   0.211   0.230   0.241   0.250   0.261   0.271   0.275   0.271   0.268   0.266   0.264   0.262   0.261
   15 138    62     539     248       7      17     143       0       0       0     210    0.00     0.0     0.0    0.00    0.00   0.194   0.211   0.209   0.229   0.240   0.248   0.260   0.270   0.275   0.271   0.268   0.266   0.264   0.262   0.261
   15 139    63     552     261       7      17     159       0       0       0     210    0.00     0.0     0.0    0.03    0.00   0.310   0.271   0.255   0.228   0.236   0.245   0.257   0.269   0.275   0.271   0.268   0.266   0.264   0.261   0.261
   15 140    64     570     278       9      17     179       0       0       0     210    0.00     0.0     0.0    1.55    0.00   0.317   0.319   0.322   0.291   0.265   0.244   0.257   0.268   0.274   0.271   0.268   0.266   0.264   0.261   0.261
   15 141    65     570     279       9      17     180       0       0       0     210    0.00     0.0     0.0    0.00    0.00   0.290   0.293   0.323   0.300   0.285   0.262   0.256   0.268   0.274   0.271   0.268   0.266   0.264   0.261   0.260
   15 142    66     567     276       9      20     180       0       0       0     210    0.00     0.0     0.0    0.00    0.00   0.260   0.268   0.287   0.280   0.275   0.270   0.276   0.276   0.275   0.273   0.270   0.268   0.266   0.263   0.262
   15 143    67     569     277       9      20     183       0       0       0     210    0.00     0.0     0.0    0.00    0.00   0.277   0.264   0.287   0.279   0.279   0.276   0.278   0.278   0.275   0.273   0.270   0.268   0.266   0.263   0.262
   15 144    68     569     277       9      20     184       0       0       0     210    0.00     0.0     0.0    0.00    0.00   0.266   0.260   0.284   0.278   0.280   0.280   0.281   0.279   0.276   0.273   0.270   0.268   0.266   0.263   0.262
   15 145    69     564     272       9      24     184       0       0       0     210    0.00     0.0     0.0    0.00    0.00   0.248   0.252   0.267   0.269   0.273   0.275   0.278   0.277   0.276   0.273   0.270   0.268   0.266   0.263   0.262
   15 146    70     561     269       9      25     184       0       0       0     210    0.00     0.0     0.0    0.00    0.00   0.238   0.247   0.257   0.264   0.269   0.272   0.277   0.277   0.276   0.273   0.270   0.268   0.266   0.263   0.262
   15 147    71     560     269       9      26     184       0       0       0     210    0.00     0.0     0.0    0.00    0.00   0.235   0.245   0.254   0.263   0.268   0.271   0.277   0.276   0.276   0.273   0.270   0.268   0.266   0.263   0.262
   15 148    72     559     267       9      26     184       0       0       0     210    0.00     0.0     0.0    0.00    0.00   0.231   0.243   0.252   0.262   0.267   0.270   0.276   0.276   0.276   0.273   0.270   0.268   0.266   0.263   0.262
   15 149    73     557     265       9      26     184       0       0       0     210    0.00     0.0     0.0    0.00    0.00   0.223   0.239   0.248   0.259   0.265   0.268   0.275   0.275   0.275   0.273   0.270   0.268   0.266   0.263   0.262
   15 150    74     555     263       9      26     184       0       0       0     210    0.00     0.0     0.0    0.00    0.00   0.216   0.236   0.245   0.257   0.263   0.267   0.273   0.274   0.275   0.272   0.270   0.268   0.266   0.263   0.262
   15 151    75     554     262       9      26     184       0       0       0     210    0.00     0.0     0.0    0.00    0.00   0.213   0.234   0.244   0.256   0.262   0.266   0.273   0.273   0.275   0.272   0.269   0.267   0.266   0.263   0.262
   15 152    76     552     261       9      26     184       0       0       0     210    0.00     0.0     0.0    0.00    0.00   0.202   0.232   0.242   0.254   0.260   0.265   0.272   0.272   0.275   0.272   0.269   0.267   0.266   0.263   0.262
   15 153    77     550     259       9      26     184       0       0       0     210    0.00     0.0     0.0    0.00    0.00   0.189   0.228   0.238   0.252   0.258   0.263   0.270   0.271   0.274   0.272   0.269   0.267   0.266   0.263   0.262
   15 154    78     548     256       9      26     184       0       0       0     210    0.00     0.0     0.0    0.00    0.00   0.174   0.223   0.234   0.248   0.255   0.261   0.268   0.270   0.274   0.272   0.269   0.267   0.266   0.263   0.262
   15 155    79     543     251       9      26     184       0       0       0     210    0.00     0.0     0.0    0.00    0.00   0.156   0.214   0.225   0.242   0.250   0.256   0.264   0.267   0.273   0.272   0.269   0.267   0.266   0.263   0.262
   15 156    80     538     246       9      26     184       0       0       0     210    0.00     0.0     0.0    0.00    0.00   0.140   0.205   0.216   0.234   0.243   0.250   0.260   0.264   0.272   0.272   0.269   0.267   0.266   0.263   0.262
   15 157    81     536     244       9      26     187       0       0       0     210    0.00     0.0     0.0    0.00    0.00   0.186   0.197   0.206   0.227   0.237   0.245   0.256   0.261   0.271   0.272   0.269   0.267   0.266   0.263   0.262
   15 158    82     530     238       9      26     187       0       0       0     210    0.00     0.0     0.0    0.00    0.00   0.164   0.189   0.196   0.218   0.229   0.239   0.251   0.257   0.269   0.272   0.269   0.267   0.266   0.263   0.262
   15 159    83     542     251       9      26     203       0       0       0     210    0.00     0.0     0.0    0.00    0.00   0.313   0.253   0.213   0.212   0.224   0.234   0.247   0.254   0.268   0.272   0.269   0.267   0.265   0.263   0.262
   15 160    84     541     249       9      26     203       0       0       0     210    0.00     0.0     0.0    0.00    0.00   0.269   0.247   0.250   0.214   0.223   0.233   0.246   0.254   0.268   0.272   0.269   0.267   0.265   0.263   0.262
   15 161    85     540     249       9      26     203       0       0       0     210    0.00     0.0     0.0    0.00    0.00   0.251   0.247   0.252   0.221   0.223   0.233   0.246   0.253   0.268   0.272   0.269   0.267   0.265   0.262   0.262
   15 162    86     539     248       9      26     203       0       0       0     210    0.00     0.0     0.0    0.00    0.00   0.238   0.244   0.250   0.223   0.221   0.231   0.245   0.253   0.267   0.271   0.269   0.267   0.265   0.262   0.261
   15 163    87     536     245       9      26     203       0       0       0     210    0.00     0.0     0.0    0.00    0.00   0.227   0.239   0.245   0.219   0.218   0.229   0.243   0.251   0.267   0.271   0.269   0.267   0.265   0.262   0.261
   15 164    88     536     245       9      26     211       0       0       0     210    0.00     0.0     0.0    0.00    0.00   0.292   0.246   0.249   0.215   0.210   0.222   0.237   0.246   0.265   0.270   0.269   0.267   0.265   0.262   0.261
   15 165    89     551     259      10      26     231       0       0       0     210    0.00     0.0     0.0    1.19    0.00   0.304   0.312   0.317   0.264   0.213   0.218   0.234   0.244   0.263   0.269   0.269   0.267   0.265   0.262   0.261
   15 166    90     566     274      12      26     252       0       0       0     210    0.00     0.0     0.0    2.14    0.00   0.307   0.314   0.317   0.326   0.287   0.238   0.231   0.242   0.262   0.268   0.269   0.267   0.265   0.262   0.261
   15 167    91     565     274      12      26     252       0       0       0     210    0.00     0.0     0.0    0.00    0.00   0.268   0.278   0.284   0.293   0.276   0.270   0.276   0.273   0.262   0.268   0.269   0.267   0.265   0.262   0.261
   15 168    92     562     271      12      26     252       0       0       0     210    0.00     0.0     0.0    0.00    0.00   0.243   0.258   0.264   0.274   0.269   0.269   0.274   0.275   0.274   0.272   0.270   0.268   0.266   0.263   0.262
   15 169    93     570     279      12      26     263       0       0       0     210    0.00     0.0     0.0    0.00    0.00   0.312   0.283   0.295   0.277   0.274   0.272   0.276   0.273   0.273   0.272   0.270   0.268   0.266   0.263   0.262
   15 170    94     564     273      12      31     263       0       0       0     210    0.00     0.0     0.0    0.00    0.00   0.269   0.262   0.271   0.268   0.269   0.271   0.275   0.275   0.275   0.273   0.270   0.268   0.266   0.263   0.262
   15 171    95     561     270      12      33     263       0       0       0     210    0.00     0.0     0.0    0.00    0.00   0.248   0.252   0.260   0.263   0.268   0.270   0.275   0.275   0.275   0.273   0.270   0.268   0.266   0.263   0.262
   15 172    96     559     268      12      33     263       0       0       0     210    0.00     0.0     0.0    0.00    0.00   0.237   0.247   0.254   0.262   0.267   0.270   0.275   0.275   0.275   0.273   0.270   0.268   0.266   0.263   0.262
   15 173    97     567     276      12      33     273       0       0       0     210    0.00     0.0     0.0    0.00    0.00   0.315   0.272   0.279   0.267   0.269   0.272   0.274   0.274   0.274   0.272   0.270   0.268   0.266   0.263   0.262
   15 174    98     567     275      12      33     275       0       0       0     210    0.00     0.0     0.0    0.00    0.00   0.292   0.268   0.288   0.272   0.272   0.273   0.276   0.273   0.273   0.271   0.270   0.268   0.266   0.263   0.262
   15 175    99     562     270      12      36     275       0       0       0     210    0.00     0.0     0.0    0.00    0.00   0.257   0.254   0.267   0.265   0.267   0.271   0.275   0.275   0.274   0.272   0.270   0.268   0.266   0.263   0.262
   15 176   100     558     266      12      37     275       0       0       0     210    0.00     0.0     0.0    0.00    0.00   0.235   0.244   0.254   0.260   0.264   0.268   0.273   0.274   0.274   0.272   0.270   0.268   0.266   0.263   0.262
   15 177   101     553     262      12      37     275       0       0       0     210    0.00     0.0     0.0    0.00    0.00   0.220   0.237   0.247   0.255   0.259   0.264   0.270   0.271   0.272   0.271   0.269   0.268   0.266   0.263   0.262
   15 178   102     547     256      12      37     275       0       0       0     210    0.00     0.0     0.0    0.00    0.00   0.199   0.228   0.238   0.248   0.253   0.258   0.266   0.268   0.270   0.269   0.269   0.268   0.266   0.263   0.262
   15 179   103     544     253      12      37     275       0       0       0     210    0.00     0.0     0.0    0.00    0.00   0.185   0.224   0.234   0.245   0.250   0.256   0.264   0.266   0.270   0.268   0.269   0.268   0.266   0.263   0.262
   15 180   104     540     249      12      37     275       0       0       0     210    0.00     0.0     0.0    0.00    0.00   0.169   0.218   0.228   0.240   0.246   0.253   0.261   0.264   0.268   0.267   0.268   0.268   0.266   0.263   0.262
   15 181   105     535     243      12      37     275       0       0       0     210    0.00     0.0     0.0    0.00    0.00   0.150   0.210   0.220   0.233   0.240   0.247   0.257   0.260   0.266   0.265   0.268   0.268   0.266   0.263   0.262
   15 182   106     527     235      12      37     275       0       0       0     210    0.00     0.0     0.0    0.00    0.00   0.130   0.199   0.206   0.223   0.231   0.240   0.250   0.255   0.263   0.262   0.267   0.268   0.266   0.263   0.262
   15 183   107     520     228      12      37     275       0       0       0     210    0.00     0.0     0.0    0.00    0.00   0.117   0.190   0.194   0.213   0.222   0.232   0.244   0.250   0.261   0.260   0.266   0.268   0.266   0.263   0.262
   15 184   108     512     221      12      37     275       0       0       0     210    0.00     0.0     0.0    0.00    0.00   0.107   0.181   0.181   0.204   0.213   0.224   0.237   0.244   0.257   0.257   0.266   0.268   0.266   0.263   0.262
   15 185   109     505     214      12      37     275       0       0       0     210    0.00     0.0     0.0    0.00    0.00   0.100   0.173   0.167   0.196   0.204   0.215   0.230   0.238   0.254   0.254   0.265   0.268   0.266   0.263   0.262
   15 186   110     498     206      12      37     275       0       0       0     210    0.00     0.0     0.0    0.00    0.00   0.094   0.165   0.156   0.187   0.195   0.206   0.222   0.232   0.250   0.250   0.264   0.268   0.266   0.263   0.262
   15 187   111     491     200      12      37     275       0       0       0     210    0.00     0.0     0.0    0.00    0.00   0.089   0.158   0.147   0.181   0.188   0.198   0.215   0.226   0.247   0.247   0.263   0.268   0.266   0.263   0.262
   15 188   112     491     199      12      37     279       0       0       0     210    0.00     0.0     0.0    0.00    0.00   0.160   0.154   0.143   0.176   0.183   0.193   0.209   0.221   0.244   0.245   0.263   0.268   0.266   0.263   0.262
   15 189   113     490     198      12      37     285       0       0       0     210    0.00     0.0     0.0    0.00    0.00   0.238   0.159   0.137   0.170   0.177   0.186   0.202   0.215   0.241   0.241   0.262   0.268   0.266   0.263   0.262
   15 190   114     487     196      12      37     285       0       0       0     210    0.00     0.0     0.0    0.00    0.00   0.227   0.157   0.136   0.169   0.176   0.184   0.199   0.213   0.239   0.240   0.262   0.267   0.266   0.263   0.262
   15 191   115     484     193      12      37     285       0       0       0     210    0.00     0.0     0.0    0.00    0.00   0.200   0.154   0.135   0.167   0.174   0.182   0.197   0.210   0.238   0.239   0.261   0.267   0.266   0.263   0.262
   15 192   116     478     187      12      37     285       0       0       0     210    0.00     0.0     0.0    0.00    0.00   0.166   0.150   0.132   0.163   0.170   0.178   0.191   0.205   0.235   0.236   0.261   0.267   0.266   0.263   0.262
   15 193   117     470     179      12      37     285       0       0       0     210    0.00     0.0     0.0    0.00    0.00   0.133   0.143   0.128   0.157   0.164   0.171   0.183   0.197   0.230   0.231   0.259   0.267   0.266   0.263   0.262
   15 194   118     465     174      12      37     286       0       0       0     210    0.00     0.0     0.0    0.00    0.00   0.140   0.139   0.127   0.153   0.160   0.166   0.177   0.190   0.226   0.227   0.258   0.267   0.266   0.263   0.262
   15 195   119     464     172      12      37     286       0       0       0     210    0.00     0.0     0.0    0.00    0.00   0.129   0.138   0.126   0.153   0.159   0.165   0.176   0.188   0.225   0.226   0.258   0.267   0.266   0.263   0.262
   15 196   120     460     169      12      37     286       0       0       0     210    0.00     0.0     0.0    0.00    0.00   0.116   0.135   0.125   0.151   0.157   0.163   0.173   0.184   0.222   0.224   0.258   0.266   0.266   0.263   0.262
   15 197   121     456     164      12      37     286       0       0       0     210    0.00     0.0     0.0    0.00    0.00   0.106   0.132   0.124   0.148   0.154   0.160   0.169   0.178   0.218   0.220   0.257   0.266   0.266   0.263   0.262
   15 198   122     449     157      12      37     286       0       0       0     210    0.00     0.0     0.0    0.00    0.00   0.099   0.127   0.123   0.143   0.149   0.155   0.163   0.169   0.211   0.213   0.255   0.266   0.266   0.263   0.262
   15 199   123     442     151      12      37     286       0       0       0     210    0.00     0.0     0.0    0.00    0.00   0.093   0.124   0.123   0.140   0.146   0.151   0.158   0.162   0.203   0.206   0.253   0.266   0.266   0.263   0.262
   15 200   124     438     147      12      37     286       0       0       0     210    0.00     0.0     0.0    0.00    0.00   0.088   0.122   0.123   0.138   0.144   0.148   0.155   0.158   0.197   0.200   0.252   0.266   0.266   0.263   0.262
   15 201   125     434     143      12      37     286       0       0       0     210    0.00     0.0     0.0    0.00    0.00   0.083   0.120   0.123   0.137   0.142   0.147   0.153   0.156   0.191   0.195   0.252   0.266   0.266   0.263   0.262
   15 202   126     431     140      12      37     286       0       0       0     210    0.00     0.0     0.0    0.00    0.00   0.078   0.119   0.123   0.136   0.141   0.146   0.152   0.154   0.185   0.189   0.252   0.266   0.266   0.263   0.262
   15 203   127     426     134      12      37     286       0       0       0     210    0.00     0.0     0.0    0.00    0.00   0.074   0.118   0.122   0.134   0.140   0.144   0.149   0.150   0.175   0.178   0.252   0.266   0.266   0.263   0.262
   15 204   128     421     129      12      37     287       0       0       0     210    0.00     0.0     0.0    0.00    0.00   0.090   0.118   0.122   0.133   0.138   0.143   0.148   0.148   0.166   0.167   0.248   0.266   0.266   0.263   0.262
   15 205   129     419     128      12      37     287       0       0       0     210    0.00     0.0     0.0    0.00    0.00   0.085   0.117   0.122   0.133   0.138   0.142   0.148   0.148   0.164   0.165   0.248   0.266   0.266   0.263   0.262
   15 206   130     416     124      12      37     287       0       0       0     210    0.00     0.0     0.0    0.00    0.00   0.080   0.117   0.122   0.133   0.138   0.142   0.147   0.147   0.156   0.156   0.248   0.266   0.266   0.263   0.262
   15 207   131     415     124      12      37     287       0       0       0     210    0.00     0.0     0.0    0.00    0.00   0.076   0.116   0.122   0.133   0.138   0.142   0.147   0.147   0.156   0.156   0.248   0.266   0.266   0.263   0.262
   15 208   132     418     126      12      37     290       0       0       0     210    0.00     0.0     0.0    0.00    0.00   0.129   0.116   0.122   0.133   0.138   0.142   0.147   0.147   0.156   0.156   0.248   0.266   0.266   0.263   0.262
   15 209   133     417     126      12      37     291       0       0       0     210    0.00     0.0     0.0    0.00    0.00   0.118   0.115   0.121   0.133   0.138   0.142   0.147   0.147   0.156   0.156   0.248   0.266   0.266   0.263   0.262
   15 210   134     417     126      12      37     292       0       0       0     210    0.00     0.0     0.0    0.00    0.00   0.119   0.115   0.121   0.133   0.138   0.142   0.147   0.147   0.156   0.156   0.248   0.266   0.266   0.263   0.262
   15 211   135     416     125      12      37     292       0       0       0     210    0.00     0.0     0.0    0.00    0.00   0.100   0.114   0.121   0.132   0.138   0.142   0.147   0.147   0.156   0.156   0.248   0.266   0.266   0.263   0.262
   15 212   136     416     124      12      37     292       0       0       0     210    0.00     0.0     0.0    0.00    0.00   0.094   0.114   0.121   0.132   0.138   0.142   0.147   0.147   0.156   0.156   0.248   0.266   0.266   0.263   0.262
   15 213   137     415     124      12      37     292       0       0       0     210    0.00     0.0     0.0    0.00    0.00   0.089   0.113   0.121   0.132   0.138   0.142   0.147   0.147   0.156   0.156   0.248   0.266   0.266   0.263   0.262
   15 214   138     415     124      12      37     292       0       0       0     210    0.00     0.0     0.0    0.00    0.00   0.084   0.113   0.121   0.132   0.138   0.142   0.147   0.147   0.156   0.156   0.248   0.266   0.265   0.263   0.262
   15 215   139     415     123      12      37     292       0       0       0     210    0.00     0.0     0.0    0.00    0.00   0.079   0.113   0.120   0.132   0.138   0.142   0.147   0.147   0.156   0.156   0.248   0.266   0.265   0.263   0.262
   15 216   140     414     123      12      37     292       0       0       0     210    0.00     0.0     0.0    0.00    0.00   0.075   0.112   0.120   0.132   0.138   0.142   0.147   0.147   0.156   0.156   0.248   0.266   0.265   0.263   0.262
   15 217   141     414     123      12      37     292       0       0       0     210    0.00     0.0     0.0    0.00    0.00   0.071   0.112   0.120   0.132   0.137   0.142   0.147   0.147   0.156   0.156   0.248   0.266   0.265   0.263   0.262
   15 218   142     414     122      12      37     292       0       0       0     210    0.00     0.0     0.0    0.00    0.00   0.068   0.111   0.120   0.132   0.137   0.142   0.147   0.147   0.156   0.156   0.248   0.266   0.265   0.263   0.262
   15 219   143     414     122      12      37     292       0       0       0     210    0.00     0.0     0.0    0.00    0.00   0.064   0.111   0.120   0.132   0.137   0.142   0.147   0.147   0.156   0.156   0.248   0.266   0.265   0.263   0.262
   15 220   144     414     123      12      37     293       0       0       0     210    0.00     0.0     0.0    0.00    0.00   0.081   0.110   0.120   0.132   0.137   0.142   0.147   0.147   0.156   0.156   0.248   0.266   0.265   0.263   0.262
   15 221   145     414     123      12      37     293       0       0       0     210    0.00     0.0     0.0    0.00    0.00   0.076   0.110   0.120   0.132   0.137   0.142   0.147   0.147   0.156   0.156   0.248   0.266   0.265   0.263   0.262
   15 222   146     414     122      12      37     293       0       0       0     210    0.00     0.0     0.0    0.00    0.00   0.072   0.110   0.119   0.132   0.137   0.142   0.147   0.147   0.156   0.156   0.248   0.266   0.265   0.263   0.262
   15 223   147     414     122      12      37     293       0       0       0     210    0.00     0.0     0.0    0.00    0.00   0.069   0.109   0.119   0.131   0.137   0.142   0.147   0.147   0.156   0.156   0.248   0.266   0.265   0.263   0.262
   15 224   148     413     122      12      37     293       0       0       0     210    0.00     0.0     0.0    0.00    0.00   0.066   0.109   0.119   0.131   0.137   0.141   0.147   0.147   0.156   0.156   0.248   0.266   0.265   0.263   0.262
   15 225   149     413     122      12      37     293       0       0       0     210    0.00     0.0     0.0    0.00    0.00   0.063   0.108   0.119   0.131   0.137   0.141   0.147   0.147   0.156   0.156   0.248   0.266   0.265   0.263   0.262
   15 226   150     417     125      12      37     297       0       0       0     210    0.00     0.0     0.0    0.00    0.00   0.136   0.108   0.119   0.131   0.137   0.141   0.147   0.147   0.156   0.156   0.248   0.266   0.265   0.263   0.262
   15 227   151     416     125      12      37     297       0       0       0     210    0.00     0.0     0.0    0.00    0.00   0.127   0.107   0.119   0.131   0.137   0.141   0.147   0.147   0.156   0.156   0.248   0.266   0.265   0.263   0.262
   15 228   152     421     130      12      37     303       0       0       0     210    0.00     0.0     0.0    0.00    0.00   0.228   0.109   0.118   0.131   0.137   0.141   0.147   0.147   0.156   0.156   0.248   0.266   0.265   0.263   0.262
   15 229   153     424     133      12      37     307       0       0       0     210    0.00     0.0     0.0    0.00    0.00   0.268   0.125   0.118   0.130   0.136   0.141   0.146   0.146   0.155   0.155   0.247   0.265   0.265   0.262   0.261
   15 230   154     420     129      12      37     307       0       0       0     210    0.00     0.0     0.0    0.00    0.00   0.229   0.129   0.116   0.129   0.135   0.140   0.145   0.145   0.154   0.155   0.246   0.264   0.264   0.261   0.260
   15 231   155     419     128      12      37     307       0       0       0     210    0.00     0.0     0.0    0.00    0.00   0.211   0.128   0.115   0.128   0.135   0.140   0.145   0.145   0.154   0.155   0.246   0.264   0.264   0.261   0.260
   15 232   156     418     127      12      37     307       0       0       0     210    0.00     0.0     0.0    0.00    0.00   0.195   0.128   0.115   0.128   0.135   0.139   0.145   0.145   0.154   0.155   0.246   0.264   0.264   0.261   0.260
   15 233   157     417     126      12      37     307       0       0       0     210    0.00     0.0     0.0    0.00    0.00   0.181   0.127   0.115   0.128   0.135   0.139   0.145   0.145   0.154   0.155   0.246   0.264   0.264   0.261   0.260
   15 234   158     417     125      12      37     307       0       0       0     210    0.00     0.0     0.0    0.00    0.00   0.167   0.127   0.115   0.128   0.135   0.139   0.145   0.145   0.154   0.155   0.246   0.264   0.264   0.261   0.260
   15 235   159     418     126      12      37     309       0       0       0     210    0.00     0.0     0.0    0.00    0.00   0.193   0.126   0.115   0.128   0.135   0.139   0.145   0.145   0.154   0.155   0.246   0.264   0.264   0.261   0.260
   15 236   160     435     143      12      37     330       0       0       0     210    0.00     0.0     0.0    0.13    0.00   0.298   0.253   0.138   0.126   0.133   0.138   0.144   0.144   0.153   0.154   0.244   0.263   0.262   0.260   0.259
   15 237   161     432     140      12      37     332       0       0       0     210    0.00     0.0     0.0    0.00    0.00   0.265   0.252   0.164   0.125   0.132   0.137   0.142   0.143   0.152   0.153   0.243   0.261   0.261   0.259   0.258

*DSSAT Cropping System Model Ver. 4.8.5.000 -release  FEB 02, 2026 11:46:55

*RUN   2        : 2                         WHAPS048 TUDU1501    2
 MODEL          : WHAPS048 - Wheat
 EXPERIMENT     : TUDU1501 WH
 DATA PATH      :
 TREATMENT  2   : 2                         WHAPS048
  
!                                                                                                                                   Soil water content (mm3/mm3) by soil depth (cm):
!                                                                                                                                   0-5    5-15   15-20   20-30   30-40   40-50   50-60   60-70   70-90  90-110 110-130 130-150 150-170 170-190 190-210
@YEAR DOY   DAS    SWTD    SWXD    ROFC    DRNC    PREC    IR#C    IRRC   LATFC    DTWT    MWTD    TDFD    TDFC    ROFD    ROSD    SW1D    SW2D    SW3D    SW4D    SW5D    SW6D    SW7D    SW8D    SW9D   SW10D   SW11D   SW12D   SW13D   SW14D   SW15D
   15 076     0     545     253       0       0       0       0       0       0     210    0.00     0.0     0.0    0.00    0.00   0.223   0.234   0.249   0.249   0.269   0.269   0.269   0.268   0.268   0.264   0.259   0.259   0.259   0.259   0.259
   15 077     1     542     251       0       0       0       0       0       0     210    0.00     0.0     0.0    0.00    0.00   0.229   0.230   0.246   0.247   0.267   0.267   0.268   0.267   0.267   0.263   0.258   0.258   0.258   0.258   0.258
   15 078     2     539     248       0       0       0       0       0       0     210    0.00     0.0     0.0    0.00    0.00   0.217   0.225   0.243   0.244   0.265   0.266   0.266   0.265   0.266   0.262   0.257   0.258   0.258   0.258   0.258
   15 079     3     538     246       0       0       0       0       0       0     210    0.00     0.0     0.0    0.00    0.00   0.198   0.224   0.242   0.244   0.265   0.266   0.266   0.265   0.266   0.262   0.257   0.258   0.258   0.258   0.258
   15 080     4     538     247       0       0       2       0       0       0     210    0.00     0.0     0.0    0.00    0.00   0.219   0.224   0.242   0.244   0.265   0.265   0.266   0.265   0.266   0.262   0.257   0.258   0.258   0.258   0.258
   15 081     5     538     247       0       0       2       0       0       0     210    0.00     0.0     0.0    0.00    0.00   0.204   0.223   0.242   0.244   0.265   0.265   0.266   0.265   0.266   0.262   0.257   0.258   0.258   0.258   0.258
   15 082     6     537     245       0       0       2       0       0       0     210    0.00     0.0     0.0    0.00    0.00   0.186   0.222   0.241   0.244   0.265   0.265   0.266   0.265   0.266   0.262   0.257   0.258   0.258   0.258   0.258
   15 083     7     536     245       0       0       2       0       0       0     210    0.00     0.0     0.0    0.00    0.00   0.170   0.221   0.241   0.243   0.264   0.265   0.266   0.265   0.266   0.262   0.257   0.258   0.258   0.258   0.258
   15 084     8     535     244       0       0       2       0       0       0     210    0.00     0.0     0.0    0.00    0.00   0.156   0.220   0.241   0.243   0.264   0.265   0.266   0.265   0.266   0.262   0.257   0.257   0.258   0.258   0.258
   15 085     9     534     243       0       0       2       0       0       0     210    0.00     0.0     0.0    0.00    0.00   0.147   0.219   0.240   0.243   0.264   0.265   0.266   0.265   0.266   0.262   0.257   0.257   0.258   0.258   0.258
   15 086    10     534     243       0       0       3       0       0       0     210    0.00     0.0     0.0    0.00    0.00   0.156   0.218   0.240   0.243   0.264   0.265   0.266   0.265   0.266   0.262   0.257   0.257   0.258   0.258   0.258
   15 087    11     534     243       0       0       3       0       0       0     210    0.00     0.0     0.0    0.00    0.00   0.143   0.217   0.239   0.243   0.264   0.265   0.266   0.265   0.266   0.262   0.257   0.257   0.258   0.258   0.258
   15 088    12     533     242       0       0       3       0       0       0     210    0.00     0.0     0.0    0.00    0.00   0.132   0.216   0.239   0.242   0.264   0.265   0.266   0.265   0.266   0.262   0.257   0.257   0.258   0.258   0.258
   15 089    13     539     248       0       0      10       0       0       0     210    0.00     0.0     0.0    0.00    0.00   0.242   0.224   0.239   0.242   0.264   0.265   0.266   0.265   0.266   0.262   0.257   0.257   0.258   0.258   0.258
   15 090    14     540     249       0       0      13       0       0       0     210    0.00     0.0     0.0    0.00    0.00   0.267   0.237   0.237   0.241   0.263   0.264   0.265   0.264   0.265   0.262   0.257   0.257   0.257   0.257   0.258
   15 091    15     541     250       0       0      16       0       0       0     210    0.00     0.0     0.0    0.00    0.00   0.277   0.248   0.246   0.240   0.262   0.263   0.264   0.264   0.264   0.261   0.256   0.257   0.257   0.257   0.257
   15 092    16     544     253       0       0      20       0       0       0     210    0.00     0.0     0.0    0.00    0.00   0.299   0.259   0.263   0.245   0.261   0.262   0.263   0.263   0.264   0.261   0.256   0.256   0.257   0.257   0.257
   15 093    17     541     250       0       0      20       0       0       0     210    0.00     0.0     0.0    0.00    0.00   0.253   0.247   0.254   0.259   0.265   0.261   0.262   0.262   0.263   0.260   0.255   0.256   0.256   0.256   0.256
   15 094    18     544     252       0       0      24       0       0       0     210    0.00     0.0     0.0    0.00    0.00   0.285   0.256   0.263   0.263   0.266   0.261   0.261   0.261   0.262   0.259   0.255   0.255   0.256   0.256   0.256
   15 095    19     541     250       0       0      24       0       0       0     210    0.00     0.0     0.0    0.00    0.00   0.252   0.248   0.256   0.261   0.266   0.270   0.269   0.261   0.262   0.259   0.254   0.255   0.255   0.256   0.256
   15 096    20     540     249       0       0      24       0       0       0     210    0.00     0.0     0.0    0.00    0.00   0.238   0.246   0.252   0.261   0.266   0.270   0.270   0.260   0.261   0.258   0.254   0.255   0.255   0.255   0.256
   15 097    21     537     245       0       0      24       0       0       0     210    0.00     0.0     0.0    0.00    0.00   0.225   0.241   0.249   0.258   0.264   0.268   0.268   0.259   0.260   0.257   0.253   0.254   0.254   0.255   0.255
   15 098    22     535     244       0       0      24       0       0       0     210    0.00     0.0     0.0    0.00    0.00   0.206   0.239   0.249   0.258   0.264   0.268   0.268   0.259   0.260   0.257   0.253   0.254   0.254   0.255   0.255
   15 099    23     534     243       0       0      24       0       0       0     210    0.00     0.0     0.0    0.00    0.00   0.188   0.238   0.248   0.258   0.264   0.268   0.268   0.259   0.260   0.257   0.253   0.254   0.254   0.255   0.255
   15 100    24     533     242       0       0      24       0       0       0     210    0.00     0.0     0.0    0.00    0.00   0.171   0.236   0.248   0.258   0.264   0.268   0.268   0.259   0.260   0.257   0.253   0.254   0.254   0.255   0.255
   15 101    25     532     241       0       0      24       0       0       0     210    0.00     0.0     0.0    0.00    0.00   0.156   0.234   0.247   0.257   0.263   0.268   0.268   0.259   0.260   0.257   0.253   0.254   0.254   0.255   0.255
   15 102    26     531     240       0       0      24       0       0       0     210    0.00     0.0     0.0    0.00    0.00   0.143   0.233   0.247   0.257   0.263   0.268   0.268   0.259   0.260   0.257   0.253   0.254   0.254   0.255   0.255
   15 103    27     531     239       0       0      24       0       0       0     210    0.00     0.0     0.0    0.00    0.00   0.131   0.230   0.246   0.257   0.263   0.268   0.268   0.258   0.260   0.257   0.253   0.254   0.254   0.255   0.255
   15 104    28     530     239       0       0      24       0       0       0     210    0.00     0.0     0.0    0.00    0.00   0.120   0.228   0.246   0.257   0.263   0.268   0.268   0.258   0.260   0.257   0.253   0.254   0.254   0.255   0.255
   15 105    29     529     238       0       0      24       0       0       0     210    0.00     0.0     0.0    0.00    0.00   0.111   0.225   0.245   0.256   0.263   0.268   0.268   0.258   0.260   0.257   0.253   0.254   0.254   0.255   0.255
   15 106    30     528     237       0       0      24       0       0       0     210    0.00     0.0     0.0    0.00    0.00   0.102   0.219   0.244   0.256   0.263   0.268   0.268   0.258   0.260   0.257   0.253   0.254   0.254   0.255   0.255
   15 107    31     549     258       1       0      48       0       0       0     210    0.00     0.0     0.0    0.86    0.00   0.311   0.292   0.296   0.269   0.268   0.269   0.267   0.258   0.259   0.257   0.253   0.253   0.254   0.254   0.255
   15 108    32     546     255       1       0      48       0       0       0     210    0.00     0.0     0.0    0.00    0.00   0.261   0.264   0.271   0.264   0.267   0.270   0.275   0.275   0.272   0.256   0.252   0.253   0.253   0.254   0.254
   15 109    33     543     251       1       0      48       0       0       0     210    0.00     0.0     0.0    0.00    0.00   0.232   0.249   0.258   0.261   0.265   0.269   0.274   0.274   0.274   0.260   0.251   0.252   0.253   0.253   0.254
   15 110    34     538     247       1       0      48       0       0       0     210    0.00     0.0     0.0    0.00    0.00   0.214   0.241   0.251   0.259   0.264   0.267   0.272   0.273   0.272   0.259   0.250   0.251   0.252   0.252   0.253
   15 111    35     537     246       1       0      48       0       0       0     210    0.00     0.0     0.0    0.00    0.00   0.191   0.238   0.250   0.258   0.264   0.267   0.272   0.273   0.272   0.259   0.250   0.251   0.252   0.252   0.253
   15 112    36     535     244       1       0      48       0       0       0     210    0.00     0.0     0.0    0.00    0.00   0.167   0.233   0.248   0.257   0.264   0.267   0.272   0.273   0.272   0.259   0.250   0.251   0.252   0.252   0.253
   15 113    37     533     242       1       0      48       0       0       0     210    0.00     0.0     0.0    0.00    0.00   0.148   0.227   0.246   0.256   0.263   0.267   0.272   0.273   0.272   0.259   0.250   0.251   0.252   0.252   0.253
   15 114    38     532     241       1       0      48       0       0       0     210    0.00     0.0     0.0    0.00    0.00   0.135   0.224   0.244   0.256   0.263   0.267   0.272   0.273   0.272   0.259   0.250   0.251   0.252   0.252   0.253
   15 115    39     531     240       1       0      49       0       0       0     210    0.00     0.0     0.0    0.00    0.00   0.141   0.217   0.241   0.254   0.263   0.267   0.272   0.273   0.272   0.259   0.250   0.251   0.252   0.252   0.253
   15 116    40     531     239       1       0      50       0       0       0     210    0.00     0.0     0.0    0.00    0.00   0.148   0.212   0.239   0.253   0.262   0.267   0.272   0.273   0.272   0.259   0.250   0.251   0.252   0.252   0.253
   15 117    41     534     243       1       0      55       0       0       0     210    0.00     0.0     0.0    0.00    0.00   0.224   0.209   0.236   0.251   0.262   0.267   0.272   0.273   0.272   0.259   0.250   0.251   0.252   0.252   0.253
   15 118    42     537     246       1       0      61       0       0       0     210    0.00     0.0     0.0    0.00    0.00   0.277   0.227   0.232   0.249   0.260   0.266   0.272   0.272   0.272   0.258   0.250   0.251   0.252   0.252   0.253
   15 119    43     535     243       1       0      61       0       0       0     210    0.00     0.0     0.0    0.00    0.00   0.244   0.233   0.230   0.247   0.259   0.265   0.271   0.271   0.271   0.258   0.249   0.250   0.251   0.252   0.252
   15 120    44     533     242       1       0      62       0       0       0     210    0.00     0.0     0.0    0.00    0.00   0.236   0.234   0.226   0.244   0.257   0.264   0.270   0.271   0.270   0.257   0.249   0.250   0.251   0.251   0.252
   15 121    45     558     266       4       0      92       0       0       0     210    0.00     0.0     0.0    3.52    0.00   0.308   0.317   0.322   0.296   0.279   0.273   0.272   0.270   0.270   0.257   0.249   0.250   0.251   0.251   0.252
   15 122    46     558     266       4       0      93       0       0       0     210    0.00     0.0     0.0    0.00    0.00   0.281   0.289   0.322   0.300   0.292   0.284   0.280   0.275   0.270   0.257   0.249   0.250   0.250   0.251   0.252
   15 123    47     567     276       4       0     104       0       0       0     210    0.00     0.0     0.0    0.11    0.00   0.313   0.309   0.322   0.313   0.304   0.296   0.291   0.283   0.273   0.256   0.248   0.249   0.250   0.251   0.252
   15 124    48     565     274       4       0     104       0       0       0     210    0.00     0.0     0.0    0.00    0.00   0.264   0.274   0.284   0.285   0.284   0.283   0.283   0.279   0.274   0.273   0.270   0.268   0.259   0.251   0.251
   15 125    49     566     274       4       0     107       0       0       0     210    0.00     0.0     0.0    0.00    0.00   0.273   0.265   0.289   0.282   0.285   0.285   0.286   0.282   0.277   0.272   0.269   0.267   0.259   0.250   0.251
   15 126    50     585     294       7       0     132       0       0       0     210    0.00     0.0     0.0    2.53    0.00   0.300   0.314   0.318   0.327   0.313   0.301   0.296   0.289   0.279   0.275   0.271   0.267   0.258   0.250   0.251
   15 127    51     574     282       7       9     132       0       0       0     210    0.00     0.0     0.0    0.00    0.00   0.257   0.276   0.282   0.292   0.288   0.285   0.285   0.282   0.277   0.274   0.271   0.268   0.266   0.263   0.262
   15 128    52     563     272       7      16     132       0       0       0     210    0.00     0.0     0.0    0.00    0.00   0.229   0.254   0.261   0.273   0.275   0.276   0.279   0.278   0.276   0.274   0.270   0.268   0.266   0.263   0.262
   15 129    53     563     272       7      16     136       0       0       0     210    0.00     0.0     0.0    0.00    0.00   0.255   0.249   0.261   0.267   0.272   0.275   0.280   0.279   0.278   0.273   0.270   0.267   0.265   0.263   0.262
   15 130    54     560     268       7      17     136       0       0       0     210    0.00     0.0     0.0    0.00    0.00   0.235   0.244   0.253   0.262   0.267   0.271   0.277   0.277   0.277   0.273   0.270   0.268   0.266   0.263   0.262
   15 131    55     556     264       7      17     136       0       0       0     210    0.00     0.0     0.0    0.00    0.00   0.217   0.237   0.247   0.257   0.264   0.268   0.275   0.276   0.277   0.273   0.269   0.267   0.265   0.262   0.262
   15 132    56     551     259       7      17     136       0       0       0     210    0.00     0.0     0.0    0.00    0.00   0.195   0.226   0.238   0.251   0.259   0.264   0.271   0.276   0.276   0.272   0.269   0.267   0.265   0.262   0.261
   15 133    57     550     259       7      17     142       0       0       0     210    0.00     0.0     0.0    0.00    0.00   0.253   0.229   0.226   0.242   0.251   0.258   0.267   0.274   0.276   0.272   0.269   0.267   0.265   0.262   0.261
   15 134    58     547     256       7      17     142       0       0       0     210    0.00     0.0     0.0    0.00    0.00   0.230   0.227   0.221   0.238   0.248   0.255   0.265   0.274   0.275   0.272   0.268   0.267   0.265   0.262   0.261
   15 135    59     545     254       7      17     142       0       0       0     210    0.00     0.0     0.0    0.00    0.00   0.222   0.223   0.218   0.236   0.246   0.254   0.264   0.273   0.275   0.271   0.268   0.266   0.265   0.262   0.261
   15 136    60     544     252       7      17     142       0       0       0     210    0.00     0.0     0.0    0.00    0.00   0.216   0.220   0.215   0.234   0.244   0.253   0.263   0.272   0.275   0.271   0.268   0.266   0.264   0.262   0.261
   15 137    61     541     250       7      17     143       0       0       0     210    0.00     0.0     0.0    0.00    0.00   0.214   0.214   0.210   0.230   0.241   0.250   0.260   0.271   0.275   0.271   0.268   0.266   0.264   0.262   0.261
   15 138    62     539     248       7      17     143       0       0       0     210    0.00     0.0     0.0    0.00    0.00   0.195   0.211   0.207   0.228   0.239   0.249   0.259   0.270   0.275   0.271   0.268   0.266   0.264   0.262   0.261
   15 139    63     552     260       7      17     159       0       0       0     210    0.00     0.0     0.0    0.03    0.00   0.309   0.271   0.254   0.227   0.235   0.245   0.257   0.268   0.275   0.271   0.268   0.266   0.264   0.261   0.261
   15 140    64     569     278       9      17     179       0       0       0     210    0.00     0.0     0.0    1.54    0.00   0.317   0.319   0.322   0.291   0.264   0.244   0.256   0.268   0.275   0.271   0.268   0.266   0.264   0.261   0.261
   15 141    65     570     278       9      17     180       0       0       0     210    0.00     0.0     0.0    0.00    0.00   0.290   0.293   0.323   0.299   0.284   0.261   0.256   0.268   0.275   0.271   0.268   0.266   0.264   0.261   0.261
   15 142    66     567     276       9      19     180       0       0       0     210    0.00     0.0     0.0    0.00    0.00   0.260   0.268   0.287   0.280   0.275   0.270   0.276   0.276   0.275   0.273   0.270   0.268   0.266   0.263   0.262
   15 143    67     569     277       9      19     183       0       0       0     210    0.00     0.0     0.0    0.00    0.00   0.277   0.264   0.287   0.279   0.279   0.276   0.278   0.278   0.275   0.273   0.270   0.268   0.266   0.263   0.262
   15 144    68     569     277       9      19     184       0       0       0     210    0.00     0.0     0.0    0.00    0.00   0.266   0.260   0.284   0.277   0.280   0.280   0.281   0.279   0.276   0.273   0.270   0.268   0.266   0.263   0.262
   15 145    69     564     272       9      23     184       0       0       0     210    0.00     0.0     0.0    0.00    0.00   0.248   0.252   0.267   0.269   0.273   0.275   0.278   0.277   0.276   0.273   0.270   0.268   0.266   0.263   0.262
   15 146    70     561     269       9      25     184       0       0       0     210    0.00     0.0     0.0    0.00    0.00   0.238   0.247   0.257   0.264   0.269   0.272   0.277   0.277   0.276   0.273   0.270   0.268   0.266   0.263   0.262
   15 147    71     560     269       9      25     184       0       0       0     210    0.00     0.0     0.0    0.00    0.00   0.235   0.245   0.254   0.263   0.268   0.271   0.277   0.276   0.276   0.273   0.270   0.268   0.266   0.263   0.262
   15 148    72     559     267       9      25     184       0       0       0     210    0.00     0.0     0.0    0.00    0.00   0.231   0.243   0.252   0.262   0.267   0.270   0.276   0.276   0.276   0.273   0.270   0.268   0.266   0.263   0.262
   15 149    73     557     265       9      25     184       0       0       0     210    0.00     0.0     0.0    0.00    0.00   0.223   0.239   0.248   0.259   0.265   0.268   0.274   0.274   0.275   0.273   0.270   0.268   0.266   0.263   0.262
   15 150    74     555     263       9      25     184       0       0       0     210    0.00     0.0     0.0    0.00    0.00   0.217   0.236   0.245   0.257   0.262   0.267   0.273   0.273   0.275   0.273   0.270   0.268   0.266   0.263   0.262
   15 151    75     554     262       9      25     184       0       0       0     210    0.00     0.0     0.0    0.00    0.00   0.208   0.234   0.244   0.256   0.262   0.266   0.272   0.273   0.275   0.273   0.270   0.268   0.266   0.263   0.262
   15 152    76     552     261       9      25     184       0       0       0     210    0.00     0.0     0.0    0.00    0.00   0.198   0.231   0.241   0.254   0.260   0.265   0.271   0.272   0.275   0.273   0.270   0.268   0.266   0.263   0.262
   15 153    77     550     259       9      25     184       0       0       0     210    0.00     0.0     0.0    0.00    0.00   0.186   0.227   0.238   0.251   0.258   0.263   0.270   0.271   0.274   0.273   0.270   0.268   0.266   0.263   0.262
   15 154    78     547     256       9      25     184       0       0       0     210    0.00     0.0     0.0    0.00    0.00   0.172   0.223   0.233   0.248   0.255   0.260   0.268   0.270   0.274   0.273   0.270   0.268   0.266   0.263   0.262
   15 155    79     543     251       9      25     184       0       0       0     210    0.00     0.0     0.0    0.00    0.00   0.155   0.214   0.225   0.241   0.249   0.255   0.264   0.267   0.273   0.272   0.270   0.268   0.266   0.263   0.262
   15 156    80     538     246       9      25     184       0       0       0     210    0.00     0.0     0.0    0.00    0.00   0.139   0.205   0.215   0.234   0.243   0.250   0.260   0.263   0.272   0.272   0.270   0.268   0.266   0.263   0.262
   15 157    81     535     244       9      25     187       0       0       0     210    0.00     0.0     0.0    0.00    0.00   0.187   0.197   0.205   0.226   0.236   0.244   0.255   0.260   0.271   0.272   0.270   0.268   0.266   0.263   0.262
   15 158    82     530     238       9      25     187       0       0       0     210    0.00     0.0     0.0    0.00    0.00   0.166   0.189   0.195   0.218   0.229   0.238   0.250   0.256   0.269   0.272   0.270   0.268   0.266   0.263   0.262
   15 159    83     542     251       9      25     203       0       0       0     210    0.00     0.0     0.0    0.00    0.00   0.313   0.254   0.212   0.212   0.224   0.234   0.246   0.253   0.268   0.272   0.270   0.268   0.266   0.263   0.262
   15 160    84     541     249       9      25     203       0       0       0     210    0.00     0.0     0.0    0.00    0.00   0.269   0.247   0.250   0.214   0.222   0.233   0.245   0.253   0.268   0.272   0.269   0.268   0.266   0.263   0.262
   15 161    85     540     249       9      25     203       0       0       0     210    0.00     0.0     0.0    0.00    0.00   0.251   0.247   0.252   0.221   0.222   0.232   0.245   0.252   0.268   0.272   0.269   0.268   0.266   0.263   0.262
   15 162    86     539     247       9      25     203       0       0       0     210    0.00     0.0     0.0    0.00    0.00   0.238   0.244   0.250   0.222   0.221   0.231   0.244   0.252   0.267   0.272   0.269   0.267   0.266   0.263   0.262
   15 163    87     536     245       9      25     203       0       0       0     210    0.00     0.0     0.0    0.00    0.00   0.227   0.239   0.245   0.219   0.218   0.229   0.242   0.250   0.267   0.271   0.269   0.267   0.265   0.262   0.262
   15 164    88     536     245       9      25     211       0       0       0     210    0.00     0.0     0.0    0.00    0.00   0.292   0.246   0.249   0.215   0.209   0.221   0.236   0.245   0.265   0.270   0.269   0.267   0.265   0.262   0.261
   15 165    89     551     259      10      25     231       0       0       0     210    0.00     0.0     0.0    1.19    0.00   0.304   0.312   0.317   0.264   0.212   0.217   0.233   0.243   0.263   0.269   0.269   0.267   0.265   0.262   0.261
   15 166    90     566     274      12      25     252       0       0       0     210    0.00     0.0     0.0    2.15    0.00   0.307   0.313   0.317   0.326   0.287   0.238   0.230   0.240   0.262   0.269   0.269   0.267   0.265   0.262   0.261
   15 167    91     565     274      12      25     252       0       0       0     210    0.00     0.0     0.0    0.00    0.00   0.269   0.278   0.284   0.293   0.276   0.270   0.276   0.270   0.262   0.268   0.269   0.267   0.265   0.262   0.261
   15 168    92     562     271      12      25     252       0       0       0     210    0.00     0.0     0.0    0.00    0.00   0.243   0.258   0.264   0.274   0.269   0.269   0.274   0.275   0.274   0.272   0.270   0.268   0.266   0.263   0.262
   15 169    93     570     279      12      25     263       0       0       0     210    0.00     0.0     0.0    0.00    0.00   0.312   0.282   0.295   0.277   0.274   0.272   0.276   0.273   0.273   0.272   0.270   0.268   0.266   0.263   0.262
   15 170    94     564     273      12      30     263       0       0       0     210    0.00     0.0     0.0    0.00    0.00   0.269   0.262   0.271   0.268   0.269   0.271   0.275   0.275   0.275   0.273   0.270   0.268   0.266   0.263   0.262
   15 171    95     561     270      12      32     263       0       0       0     210    0.00     0.0     0.0    0.00    0.00   0.248   0.252   0.260   0.263   0.268   0.270   0.275   0.275   0.275   0.273   0.270   0.268   0.266   0.263   0.262
   15 172    96     559     268      12      33     263       0       0       0     210    0.00     0.0     0.0    0.00    0.00   0.238   0.247   0.254   0.262   0.266   0.270   0.275   0.275   0.275   0.273   0.270   0.268   0.266   0.263   0.262
   15 173    97     567     276      12      33     273       0       0       0     210    0.00     0.0     0.0    0.00    0.00   0.315   0.272   0.279   0.267   0.269   0.272   0.274   0.274   0.274   0.272   0.270   0.268   0.266   0.263   0.262
   15 174    98     567     275      12      33     275       0       0       0     210    0.00     0.0     0.0    0.00    0.00   0.293   0.268   0.288   0.272   0.272   0.273   0.276   0.273   0.273   0.271   0.270   0.268   0.266   0.263   0.262
   15 175    99     562     270      12      35     275       0       0       0     210    0.00     0.0     0.0    0.00    0.00   0.257   0.254   0.267   0.265   0.267   0.271   0.275   0.275   0.274   0.272   0.270   0.268   0.266   0.263   0.262
   15 176   100     558     266      12      36     275       0       0       0     210    0.00     0.0     0.0    0.00    0.00   0.235   0.244   0.254   0.260   0.264   0.268   0.273   0.274   0.274   0.272   0.270   0.268   0.266   0.263   0.262
   15 177   101     553     262      12      36     275       0       0       0     210    0.00     0.0     0.0    0.00    0.00   0.221   0.237   0.247   0.255   0.259   0.264   0.270   0.271   0.272   0.271   0.269   0.268   0.266   0.263   0.262
   15 178   102     547     256      12      36     275       0       0       0     210    0.00     0.0     0.0    0.00    0.00   0.200   0.228   0.238   0.248   0.253   0.258   0.265   0.267   0.270   0.269   0.269   0.268   0.266   0.263   0.262
   15 179   103     544     253      12      36     275       0       0       0     210    0.00     0.0     0.0    0.00    0.00   0.186   0.224   0.234   0.245   0.250   0.256   0.263   0.266   0.270   0.268   0.269   0.268   0.266   0.263   0.262
   15 180   104     540     249      12      36     275       0       0       0     210    0.00     0.0     0.0    0.00    0.00   0.171   0.218   0.228   0.240   0.246   0.253   0.261   0.263   0.268   0.267   0.268   0.268   0.266   0.263   0.262
   15 181   105     535     243      12      36     275       0       0       0     210    0.00     0.0     0.0    0.00    0.00   0.152   0.210   0.219   0.233   0.240   0.247   0.256   0.260   0.266   0.265   0.268   0.268   0.266   0.263   0.262
   15 182   106     527     235      12      36     275       0       0       0     210    0.00     0.0     0.0    0.00    0.00   0.132   0.199   0.206   0.222   0.231   0.239   0.249   0.254   0.263   0.262   0.267   0.268   0.266   0.263   0.262
   15 183   107     519     228      12      36     275       0       0       0     210    0.00     0.0     0.0    0.00    0.00   0.118   0.190   0.193   0.213   0.222   0.232   0.243   0.249   0.260   0.260   0.266   0.268   0.266   0.263   0.262
   15 184   108     512     220      12      36     275       0       0       0     210    0.00     0.0     0.0    0.00    0.00   0.108   0.181   0.179   0.204   0.212   0.223   0.236   0.243   0.257   0.257   0.266   0.268   0.266   0.263   0.262
   15 185   109     505     213      12      36     275       0       0       0     210    0.00     0.0     0.0    0.00    0.00   0.101   0.173   0.166   0.195   0.203   0.215   0.229   0.237   0.254   0.254   0.265   0.268   0.266   0.263   0.262
   15 186   110     497     206      12      36     275       0       0       0     210    0.00     0.0     0.0    0.00    0.00   0.095   0.165   0.155   0.187   0.195   0.205   0.221   0.231   0.250   0.250   0.264   0.268   0.266   0.263   0.262
   15 187   111     491     199      12      36     275       0       0       0     210    0.00     0.0     0.0    0.00    0.00   0.090   0.158   0.146   0.180   0.188   0.197   0.213   0.224   0.246   0.247   0.263   0.268   0.266   0.263   0.262
   15 188   112     490     199      12      36     279       0       0       0     210    0.00     0.0     0.0    0.00    0.00   0.161   0.154   0.142   0.176   0.183   0.192   0.208   0.220   0.244   0.244   0.263   0.268   0.266   0.263   0.262
   15 189   113     489     198      12      36     285       0       0       0     210    0.00     0.0     0.0    0.00    0.00   0.239   0.159   0.137   0.170   0.177   0.185   0.200   0.213   0.240   0.241   0.262   0.268   0.266   0.263   0.262
   15 190   114     487     195      12      36     285       0       0       0     210    0.00     0.0     0.0    0.00    0.00   0.227   0.157   0.135   0.168   0.175   0.183   0.197   0.211   0.239   0.240   0.262   0.267   0.266   0.263   0.262
   15 191   115     483     192      12      36     285       0       0       0     210    0.00     0.0     0.0    0.00    0.00   0.202   0.154   0.134   0.166   0.173   0.181   0.195   0.208   0.237   0.238   0.261   0.267   0.266   0.263   0.262
   15 192   116     478     186      12      36     285       0       0       0     210    0.00     0.0     0.0    0.00    0.00   0.168   0.150   0.131   0.162   0.169   0.177   0.189   0.203   0.234   0.236   0.261   0.267   0.266   0.263   0.262
   15 193   117     469     178      12      36     285       0       0       0     210    0.00     0.0     0.0    0.00    0.00   0.134   0.143   0.128   0.157   0.163   0.170   0.182   0.194   0.229   0.231   0.259   0.267   0.266   0.263   0.262
   15 194   118     465     173      12      36     286       0       0       0     210    0.00     0.0     0.0    0.00    0.00   0.141   0.139   0.126   0.153   0.159   0.166   0.176   0.187   0.225   0.227   0.258   0.267   0.266   0.263   0.262
   15 195   119     463     172      12      36     286       0       0       0     210    0.00     0.0     0.0    0.00    0.00   0.130   0.137   0.126   0.152   0.158   0.165   0.175   0.185   0.224   0.226   0.258   0.267   0.266   0.263   0.262
   15 196   120     460     168      12      36     286       0       0       0     210    0.00     0.0     0.0    0.00    0.00   0.117   0.135   0.125   0.150   0.156   0.163   0.172   0.181   0.221   0.224   0.258   0.266   0.266   0.263   0.262
   15 197   121     455     164      12      36     286       0       0       0     210    0.00     0.0     0.0    0.00    0.00   0.106   0.132   0.124   0.147   0.153   0.159   0.168   0.176   0.217   0.220   0.257   0.266   0.266   0.263   0.262
   15 198   122     448     156      12      36     286       0       0       0     210    0.00     0.0     0.0    0.00    0.00   0.100   0.127   0.123   0.143   0.149   0.154   0.162   0.167   0.209   0.212   0.255   0.266   0.266   0.263   0.262
   15 199   123     441     150      12      36     286       0       0       0     210    0.00     0.0     0.0    0.00    0.00   0.094   0.124   0.123   0.140   0.145   0.150   0.157   0.161   0.201   0.205   0.253   0.266   0.266   0.263   0.262
   15 200   124     437     146      12      36     286       0       0       0     210    0.00     0.0     0.0    0.00    0.00   0.088   0.122   0.123   0.138   0.143   0.148   0.154   0.157   0.194   0.198   0.253   0.266   0.266   0.263   0.262
   15 201   125     433     142      12      36     286       0       0       0     210    0.00     0.0     0.0    0.00    0.00   0.083   0.120   0.123   0.136   0.142   0.146   0.152   0.154   0.188   0.193   0.253   0.266   0.266   0.263   0.262
   15 202   126     430     139      12      36     286       0       0       0     210    0.00     0.0     0.0    0.00    0.00   0.079   0.119   0.122   0.135   0.141   0.145   0.151   0.152   0.182   0.187   0.253   0.266   0.266   0.263   0.262
   15 203   127     424     133      12      36     286       0       0       0     210    0.00     0.0     0.0    0.00    0.00   0.075   0.118   0.122   0.134   0.139   0.143   0.149   0.149   0.172   0.175   0.253   0.266   0.266   0.263   0.262
   15 204   128     420     128      12      36     287       0       0       0     210    0.00     0.0     0.0    0.00    0.00   0.090   0.118   0.122   0.133   0.138   0.142   0.147   0.148   0.163   0.164   0.249   0.266   0.266   0.263   0.262
   15 205   129     418     127      12      36     287       0       0       0     210    0.00     0.0     0.0    0.00    0.00   0.085   0.117   0.122   0.133   0.138   0.142   0.147   0.147   0.161   0.162   0.249   0.266   0.266   0.263   0.262
   15 206   130     414     123      12      36     287       0       0       0     210    0.00     0.0     0.0    0.00    0.00   0.080   0.117   0.122   0.133   0.138   0.142   0.147   0.147   0.153   0.153   0.249   0.266   0.266   0.263   0.262
   15 207   131     414     123      12      36     287       0       0       0     210    0.00     0.0     0.0    0.00    0.00   0.076   0.116   0.122   0.133   0.138   0.142   0.147   0.147   0.153   0.153   0.249   0.266   0.266   0.263   0.262
   15 208   132     417     125      12      36     290       0       0       0     210    0.00     0.0     0.0    0.00    0.00   0.129   0.116   0.122   0.133   0.138   0.142   0.147   0.147   0.153   0.153   0.249   0.266   0.266   0.263   0.262
   15 209   133     416     125      12      36     291       0       0       0     210    0.00     0.0     0.0    0.00    0.00   0.118   0.115   0.121   0.133   0.138   0.142   0.147   0.147   0.153   0.153   0.249   0.266   0.266   0.263   0.262
   15 210   134     416     125      12      36     292       0       0       0     210    0.00     0.0     0.0    0.00    0.00   0.119   0.115   0.121   0.133   0.138   0.142   0.147   0.147   0.153   0.153   0.249   0.266   0.266   0.263   0.262
   15 211   135     415     124      12      36     292       0       0       0     210    0.00     0.0     0.0    0.00    0.00   0.100   0.114   0.121   0.132   0.138   0.142   0.147   0.147   0.153   0.153   0.249   0.266   0.266   0.263   0.262
   15 212   136     415     123      12      36     292       0       0       0     210    0.00     0.0     0.0    0.00    0.00   0.094   0.114   0.121   0.132   0.138   0.142   0.147   0.147   0.153   0.153   0.249   0.266   0.266   0.263   0.262
   15 213   137     414     123      12      36     292       0       0       0     210    0.00     0.0     0.0    0.00    0.00   0.089   0.113   0.121   0.132   0.138   0.142   0.147   0.147   0.153   0.153   0.249   0.266   0.266   0.263   0.262
   15 214   138     414     122      12      36     292       0       0       0     210    0.00     0.0     0.0    0.00    0.00   0.084   0.113   0.121   0.132   0.138   0.142   0.147   0.147   0.153   0.153   0.249   0.266   0.266   0.263   0.262
   15 215   139     414     122      12      36     292       0       0       0     210    0.00     0.0     0.0    0.00    0.00   0.079   0.113   0.120   0.132   0.138   0.142   0.147   0.147   0.153   0.153   0.249   0.266   0.266   0.263   0.262
   15 216   140     413     122      12      36     292       0       0       0     210    0.00     0.0     0.0    0.00    0.00   0.075   0.112   0.120   0.132   0.137   0.142   0.147   0.147   0.153   0.153   0.249   0.266   0.266   0.263   0.262
   15 217   141     413     122      12      36     292       0       0       0     210    0.00     0.0     0.0    0.00    0.00   0.071   0.112   0.120   0.132   0.137   0.142   0.147   0.147   0.153   0.153   0.249   0.266   0.265   0.263   0.262
   15 218   142     413     121      12      36     292       0       0       0     210    0.00     0.0     0.0    0.00    0.00   0.068   0.111   0.120   0.132   0.137   0.142   0.147   0.147   0.152   0.152   0.249   0.266   0.265   0.263   0.262
   15 219   143     413     121      12      36     292       0       0       0     210    0.00     0.0     0.0    0.00    0.00   0.064   0.111   0.120   0.132   0.137   0.142   0.147   0.147   0.152   0.152   0.248   0.266   0.265   0.263   0.262
   15 220   144     413     122      12      36     293       0       0       0     210    0.00     0.0     0.0    0.00    0.00   0.081   0.110   0.120   0.132   0.137   0.142   0.147   0.147   0.152   0.152   0.248   0.266   0.265   0.263   0.262
   15 221   145     413     121      12      36     293       0       0       0     210    0.00     0.0     0.0    0.00    0.00   0.076   0.110   0.119   0.132   0.137   0.142   0.147   0.147   0.152   0.152   0.248   0.266   0.265   0.263   0.262
   15 222   146     413     121      12      36     293       0       0       0     210    0.00     0.0     0.0    0.00    0.00   0.072   0.109   0.119   0.132   0.137   0.142   0.147   0.147   0.152   0.152   0.248   0.266   0.265   0.263   0.262
   15 223   147     412     121      12      36     293       0       0       0     210    0.00     0.0     0.0    0.00    0.00   0.069   0.109   0.119   0.131   0.137   0.141   0.147   0.147   0.152   0.152   0.248   0.266   0.265   0.263   0.262
   15 224   148     412     121      12      36     293       0       0       0     210    0.00     0.0     0.0    0.00    0.00   0.066   0.109   0.119   0.131   0.137   0.141   0.147   0.147   0.152   0.152   0.248   0.266   0.265   0.263   0.262
   15 225   149     412     120      12      36     293       0       0       0     210    0.00     0.0     0.0    0.00    0.00   0.063   0.108   0.119   0.131   0.137   0.141   0.147   0.147   0.152   0.152   0.248   0.266   0.265   0.263   0.262
   15 226   150     416     124      12      36     297       0       0       0     210    0.00     0.0     0.0    0.00    0.00   0.136   0.108   0.119   0.131   0.137   0.141   0.147   0.147   0.152   0.152   0.248   0.266   0.265   0.263   0.262
   15 227   151     415     124      12      36     297       0       0       0     210    0.00     0.0     0.0    0.00    0.00   0.127   0.107   0.119   0.131   0.137   0.141   0.147   0.147   0.152   0.152   0.248   0.266   0.265   0.263   0.262
[...]
   15 158    82     543     252       9      37     187       0       0       0     210    0.00     0.0     0.0    0.00    0.00   0.146   0.210   0.229   0.244   0.253   0.261   0.269   0.270   0.272   0.273   0.269   0.267   0.265   0.262   0.261
   15 159    83     558     266       9      37     203       0       0       0     210    0.00     0.0     0.0    0.00    0.00   0.309   0.262   0.257   0.246   0.251   0.260   0.268   0.269   0.272   0.273   0.269   0.267   0.265   0.262   0.261
   15 160    84     557     265       9      37     203       0       0       0     210    0.00     0.0     0.0    0.00    0.00   0.269   0.253   0.254   0.261   0.262   0.259   0.268   0.269   0.272   0.273   0.269   0.267   0.265   0.262   0.261
   15 161    85     556     265       9      37     203       0       0       0     210    0.00     0.0     0.0    0.00    0.00   0.250   0.248   0.253   0.261   0.267   0.265   0.268   0.269   0.271   0.273   0.268   0.267   0.265   0.262   0.261
   15 162    86     554     263       9      37     203       0       0       0     210    0.00     0.0     0.0    0.00    0.00   0.236   0.246   0.251   0.260   0.266   0.266   0.267   0.268   0.271   0.273   0.268   0.266   0.264   0.261   0.261
   15 163    87     551     260       9      37     203       0       0       0     210    0.00     0.0     0.0    0.00    0.00   0.224   0.241   0.247   0.257   0.263   0.264   0.265   0.267   0.270   0.272   0.267   0.266   0.264   0.261   0.260
   15 164    88     555     263       9      37     211       0       0       0     210    0.00     0.0     0.0    0.00    0.00   0.298   0.253   0.258   0.258   0.259   0.261   0.263   0.265   0.268   0.271   0.267   0.265   0.264   0.261   0.260
   15 165    89     570     278      10      37     231       0       0       0     210    0.00     0.0     0.0    1.29    0.00   0.305   0.315   0.319   0.294   0.278   0.270   0.263   0.263   0.267   0.270   0.266   0.265   0.263   0.260   0.259
   15 166    90     586     295      13      37     252       0       0       0     210    0.00     0.0     0.0    2.18    0.00   0.312   0.317   0.321   0.328   0.331   0.309   0.288   0.275   0.267   0.270   0.266   0.265   0.263   0.260   0.259
   15 167    91     574     283      13      47     252       0       0       0     210    0.00     0.0     0.0    0.00    0.00   0.267   0.279   0.285   0.294   0.298   0.289   0.281   0.275   0.274   0.273   0.270   0.268   0.266   0.263   0.262
   15 168    92     564     273      13      54     252       0       0       0     210    0.00     0.0     0.0    0.00    0.00   0.241   0.258   0.265   0.275   0.280   0.278   0.277   0.275   0.274   0.272   0.270   0.268   0.266   0.263   0.262
   15 169    93     574     282      13      54     263       0       0       0     210    0.00     0.0     0.0    0.00    0.00   0.314   0.284   0.297   0.279   0.281   0.281   0.281   0.278   0.275   0.272   0.269   0.267   0.266   0.263   0.262
   15 170    94     565     274      13      61     263       0       0       0     210    0.00     0.0     0.0    0.00    0.00   0.268   0.263   0.273   0.269   0.273   0.275   0.278   0.277   0.274   0.273   0.270   0.268   0.266   0.263   0.262
   15 171    95     561     270      13      63     263       0       0       0     210    0.00     0.0     0.0    0.00    0.00   0.246   0.252   0.261   0.264   0.269   0.272   0.277   0.276   0.274   0.273   0.270   0.268   0.266   0.263   0.262
   15 172    96     559     268      13      64     263       0       0       0     210    0.00     0.0     0.0    0.00    0.00   0.235   0.246   0.254   0.262   0.267   0.271   0.276   0.276   0.274   0.273   0.270   0.268   0.266   0.263   0.262
   15 173    97     567     276      13      64     273       0       0       0     210    0.00     0.0     0.0    0.00    0.00   0.313   0.272   0.279   0.268   0.269   0.272   0.277   0.275   0.274   0.272   0.269   0.267   0.265   0.263   0.262
   15 174    98     567     275      13      64     275       0       0       0     210    0.00     0.0     0.0    0.00    0.00   0.289   0.268   0.288   0.272   0.272   0.273   0.277   0.276   0.273   0.271   0.269   0.267   0.265   0.262   0.261
   15 175    99     561     270      13      66     275       0       0       0     210    0.00     0.0     0.0    0.00    0.00   0.252   0.253   0.267   0.265   0.268   0.272   0.276   0.275   0.274   0.272   0.269   0.268   0.266   0.263   0.262
   15 176   100     558     266      13      66     275       0       0       0     210    0.00     0.0     0.0    0.00    0.00   0.231   0.244   0.255   0.261   0.265   0.269   0.274   0.274   0.274   0.272   0.269   0.268   0.266   0.263   0.262
   15 177   101     553     262      13      66     275       0       0       0     210    0.00     0.0     0.0    0.00    0.00   0.215   0.238   0.248   0.258   0.261   0.266   0.272   0.272   0.272   0.271   0.269   0.267   0.265   0.262   0.261
   15 178   102     549     258      13      66     275       0       0       0     210    0.00     0.0     0.0    0.00    0.00   0.189   0.232   0.243   0.254   0.258   0.263   0.270   0.271   0.271   0.270   0.268   0.267   0.265   0.262   0.261
   15 179   103     547     256      13      66     275       0       0       0     210    0.00     0.0     0.0    0.00    0.00   0.170   0.228   0.241   0.252   0.256   0.262   0.269   0.270   0.271   0.269   0.268   0.267   0.265   0.262   0.261
   15 180   104     544     253      13      66     275       0       0       0     210    0.00     0.0     0.0    0.00    0.00   0.152   0.224   0.238   0.249   0.254   0.260   0.267   0.269   0.270   0.269   0.268   0.267   0.265   0.262   0.261
   15 181   105     541     249      13      66     275       0       0       0     210    0.00     0.0     0.0    0.00    0.00   0.135   0.218   0.233   0.246   0.250   0.258   0.265   0.267   0.269   0.268   0.268   0.267   0.265   0.262   0.261
   15 182   106     536     244      13      66     275       0       0       0     210    0.00     0.0     0.0    0.00    0.00   0.120   0.210   0.226   0.240   0.245   0.253   0.262   0.264   0.267   0.266   0.267   0.267   0.265   0.262   0.261
   15 183   107     531     240      13      66     275       0       0       0     210    0.00     0.0     0.0    0.00    0.00   0.109   0.202   0.219   0.234   0.240   0.250   0.259   0.262   0.265   0.265   0.266   0.267   0.265   0.262   0.261
   15 184   108     527     236      13      66     275       0       0       0     210    0.00     0.0     0.0    0.00    0.00   0.102   0.194   0.212   0.228   0.235   0.245   0.256   0.259   0.264   0.263   0.266   0.267   0.265   0.262   0.261
   15 185   109     523     231      13      66     275       0       0       0     210    0.00     0.0     0.0    0.00    0.00   0.096   0.186   0.205   0.223   0.230   0.241   0.253   0.256   0.262   0.262   0.265   0.267   0.265   0.262   0.261
   15 186   110     518     227      13      66     275       0       0       0     210    0.00     0.0     0.0    0.00    0.00   0.090   0.178   0.198   0.217   0.225   0.237   0.250   0.254   0.260   0.260   0.264   0.267   0.265   0.262   0.261
   15 187   111     515     223      13      66     275       0       0       0     210    0.00     0.0     0.0    0.00    0.00   0.085   0.171   0.192   0.212   0.220   0.233   0.247   0.251   0.259   0.259   0.263   0.267   0.265   0.262   0.261
   15 188   112     516     224      13      66     279       0       0       0     210    0.00     0.0     0.0    0.00    0.00   0.157   0.167   0.188   0.209   0.217   0.231   0.245   0.250   0.258   0.258   0.263   0.267   0.265   0.262   0.261
   15 189   113     518     226      13      66     285       0       0       0     210    0.00     0.0     0.0    0.00    0.00   0.234   0.171   0.183   0.204   0.213   0.228   0.243   0.248   0.256   0.257   0.262   0.267   0.265   0.262   0.261
   15 190   114     515     224      13      66     285       0       0       0     210    0.00     0.0     0.0    0.00    0.00   0.212   0.169   0.181   0.202   0.212   0.227   0.242   0.247   0.256   0.256   0.262   0.267   0.265   0.262   0.261
   15 191   115     513     222      13      66     285       0       0       0     210    0.00     0.0     0.0    0.00    0.00   0.192   0.166   0.179   0.201   0.210   0.225   0.241   0.246   0.255   0.256   0.262   0.267   0.265   0.262   0.261
   15 192   116     510     218      13      66     285       0       0       0     210    0.00     0.0     0.0    0.00    0.00   0.169   0.162   0.175   0.197   0.207   0.223   0.239   0.244   0.254   0.255   0.262   0.267   0.265   0.262   0.261
   15 193   117     505     213      13      66     285       0       0       0     210    0.00     0.0     0.0    0.00    0.00   0.144   0.157   0.169   0.192   0.203   0.219   0.236   0.242   0.252   0.253   0.261   0.267   0.265   0.262   0.261
   15 194   118     503     211      13      66     286       0       0       0     210    0.00     0.0     0.0    0.00    0.00   0.147   0.153   0.164   0.188   0.199   0.216   0.234   0.240   0.251   0.252   0.260   0.266   0.265   0.262   0.261
   15 195   119     501     210      13      66     286       0       0       0     210    0.00     0.0     0.0    0.00    0.00   0.136   0.152   0.163   0.187   0.198   0.216   0.234   0.240   0.251   0.252   0.260   0.266   0.265   0.262   0.261
   15 196   120     499     208      13      66     286       0       0       0     210    0.00     0.0     0.0    0.00    0.00   0.124   0.150   0.161   0.185   0.196   0.214   0.233   0.239   0.250   0.251   0.260   0.266   0.265   0.262   0.261
   15 197   121     496     205      13      66     286       0       0       0     210    0.00     0.0     0.0    0.00    0.00   0.113   0.147   0.157   0.182   0.194   0.212   0.231   0.237   0.249   0.250   0.260   0.266   0.265   0.262   0.261
   15 198   122     492     201      13      66     286       0       0       0     210    0.00     0.0     0.0    0.00    0.00   0.105   0.143   0.150   0.176   0.189   0.208   0.228   0.234   0.247   0.249   0.259   0.266   0.265   0.262   0.261
   15 199   123     489     197      13      66     286       0       0       0     210    0.00     0.0     0.0    0.00    0.00   0.098   0.139   0.144   0.171   0.184   0.204   0.225   0.232   0.246   0.247   0.258   0.266   0.265   0.262   0.261
   15 200   124     486     195      13      66     286       0       0       0     210    0.00     0.0     0.0    0.00    0.00   0.092   0.137   0.141   0.168   0.181   0.201   0.223   0.230   0.244   0.246   0.258   0.266   0.265   0.262   0.261
   15 201   125     484     193      13      66     286       0       0       0     210    0.00     0.0     0.0    0.00    0.00   0.087   0.135   0.138   0.166   0.178   0.199   0.221   0.229   0.243   0.245   0.257   0.266   0.265   0.262   0.261
   15 202   126     482     191      13      66     286       0       0       0     210    0.00     0.0     0.0    0.00    0.00   0.082   0.133   0.136   0.163   0.175   0.197   0.219   0.227   0.242   0.245   0.257   0.265   0.265   0.262   0.261
   15 203   127     479     187      13      66     286       0       0       0     210    0.00     0.0     0.0    0.00    0.00   0.078   0.131   0.133   0.160   0.171   0.193   0.217   0.225   0.241   0.243   0.256   0.265   0.265   0.262   0.261
   15 204   128     477     185      13      66     287       0       0       0     210    0.00     0.0     0.0    0.00    0.00   0.093   0.129   0.130   0.156   0.167   0.189   0.213   0.222   0.239   0.241   0.255   0.265   0.265   0.262   0.261
   15 205   129     476     184      13      66     287       0       0       0     210    0.00     0.0     0.0    0.00    0.00   0.087   0.128   0.129   0.155   0.166   0.188   0.213   0.221   0.239   0.241   0.255   0.265   0.265   0.262   0.261
   15 206   130     473     182      13      66     287       0       0       0     210    0.00     0.0     0.0    0.00    0.00   0.082   0.126   0.128   0.153   0.163   0.185   0.210   0.219   0.237   0.240   0.255   0.265   0.265   0.262   0.261
   15 207   131     471     180      13      66     287       0       0       0     210    0.00     0.0     0.0    0.00    0.00   0.078   0.125   0.127   0.151   0.161   0.183   0.209   0.218   0.236   0.239   0.254   0.265   0.265   0.262   0.261
   15 208   132     472     181      13      66     290       0       0       0     210    0.00     0.0     0.0    0.00    0.00   0.131   0.124   0.126   0.149   0.159   0.180   0.206   0.216   0.235   0.238   0.254   0.264   0.265   0.262   0.261
   15 209   133     471     180      13      66     291       0       0       0     210    0.00     0.0     0.0    0.00    0.00   0.139   0.123   0.126   0.148   0.157   0.178   0.205   0.215   0.234   0.237   0.253   0.264   0.265   0.262   0.261
   15 210   134     471     179      13      66     292       0       0       0     210    0.00     0.0     0.0    0.00    0.00   0.146   0.122   0.125   0.148   0.157   0.177   0.204   0.214   0.233   0.236   0.253   0.264   0.265   0.262   0.261
   15 211   135     470     178      13      66     292       0       0       0     210    0.00     0.0     0.0    0.00    0.00   0.133   0.122   0.125   0.147   0.156   0.176   0.203   0.213   0.233   0.236   0.253   0.264   0.265   0.262   0.261
   15 212   136     468     176      13      66     292       0       0       0     210    0.00     0.0     0.0    0.00    0.00   0.121   0.121   0.125   0.146   0.155   0.174   0.202   0.212   0.232   0.235   0.253   0.264   0.265   0.262   0.261
   15 213   137     466     175      13      66     292       0       0       0     210    0.00     0.0     0.0    0.00    0.00   0.111   0.120   0.124   0.145   0.154   0.172   0.201   0.211   0.231   0.235   0.252   0.264   0.265   0.262   0.261
   15 214   138     465     174      13      66     292       0       0       0     210    0.00     0.0     0.0    0.00    0.00   0.104   0.120   0.124   0.145   0.153   0.172   0.200   0.210   0.231   0.234   0.252   0.264   0.265   0.262   0.261
   15 215   139     464     172      13      66     292       0       0       0     210    0.00     0.0     0.0    0.00    0.00   0.098   0.119   0.124   0.144   0.152   0.170   0.199   0.209   0.230   0.234   0.252   0.264   0.265   0.262   0.261
   15 216   140     462     171      13      66     292       0       0       0     210    0.00     0.0     0.0    0.00    0.00   0.092   0.119   0.123   0.143   0.151   0.167   0.197   0.207   0.229   0.233   0.251   0.264   0.265   0.262   0.261
   15 217   141     460     169      13      66     292       0       0       0     210    0.00     0.0     0.0    0.00    0.00   0.087   0.118   0.123   0.142   0.149   0.165   0.195   0.206   0.228   0.232   0.251   0.264   0.265   0.262   0.261
   15 218   142     459     167      13      66     292       0       0       0     210    0.00     0.0     0.0    0.00    0.00   0.082   0.118   0.123   0.141   0.148   0.163   0.193   0.204   0.227   0.231   0.250   0.264   0.265   0.262   0.261
   15 219   143     457     166      13      66     292       0       0       0     210    0.00     0.0     0.0    0.00    0.00   0.077   0.117   0.123   0.140   0.147   0.161   0.191   0.203   0.226   0.230   0.250   0.264   0.265   0.262   0.261
   15 220   144     457     166      13      66     293       0       0       0     210    0.00     0.0     0.0    0.00    0.00   0.092   0.117   0.123   0.139   0.147   0.159   0.190   0.201   0.225   0.229   0.250   0.263   0.265   0.262   0.261
   15 221   145     456     165      13      66     293       0       0       0     210    0.00     0.0     0.0    0.00    0.00   0.087   0.116   0.122   0.139   0.146   0.159   0.189   0.201   0.224   0.228   0.249   0.263   0.265   0.262   0.261
   15 222   146     456     164      13      66     293       0       0       0     210    0.00     0.0     0.0    0.00    0.00   0.082   0.116   0.122   0.139   0.146   0.158   0.189   0.200   0.224   0.228   0.249   0.263   0.265   0.262   0.261
   15 223   147     455     164      13      66     293       0       0       0     210    0.00     0.0     0.0    0.00    0.00   0.078   0.115   0.122   0.139   0.146   0.158   0.189   0.200   0.224   0.228   0.249   0.263   0.265   0.262   0.261
   15 224   148     455     164      13      66     293       0       0       0     210    0.00     0.0     0.0    0.00    0.00   0.074   0.115   0.122   0.139   0.146   0.158   0.188   0.200   0.224   0.228   0.249   0.263   0.265   0.262   0.261
   15 225   149     455     163      13      66     293       0       0       0     210    0.00     0.0     0.0    0.00    0.00   0.070   0.114   0.122   0.139   0.146   0.158   0.188   0.200   0.224   0.228   0.249   0.263   0.265   0.262   0.261
   15 226   150     458     167      13      66     297       0       0       0     210    0.00     0.0     0.0    0.00    0.00   0.143   0.114   0.122   0.139   0.146   0.158   0.188   0.200   0.224   0.228   0.249   0.263   0.265   0.262   0.261
   15 227   151     458     166      13      66     297       0       0       0     210    0.00     0.0     0.0    0.00    0.00   0.133   0.114   0.121   0.138   0.146   0.158   0.188   0.200   0.224   0.228   0.249   0.263   0.265   0.262   0.261
   15 228   152     463     171      13      66     303       0       0       0     210    0.00     0.0     0.0    0.00    0.00   0.231   0.117   0.121   0.138   0.146   0.158   0.188   0.200   0.224   0.228   0.249   0.263   0.265   0.262   0.261
   15 229   153     466     174      13      66     307       0       0       0     210    0.00     0.0     0.0    0.00    0.00   0.271   0.133   0.121   0.138   0.145   0.158   0.188   0.200   0.224   0.228   0.249   0.263   0.264   0.262   0.261
   15 230   154     462     170      13      66     307       0       0       0     210    0.00     0.0     0.0    0.00    0.00   0.232   0.138   0.119   0.136   0.144   0.156   0.186   0.198   0.222   0.226   0.248   0.262   0.263   0.261   0.260
   15 231   155     461     169      13      66     307       0       0       0     210    0.00     0.0     0.0    0.00    0.00   0.214   0.137   0.118   0.136   0.144   0.156   0.186   0.198   0.222   0.226   0.248   0.262   0.263   0.261   0.260
   15 232   156     460     168      13      66     307       0       0       0     210    0.00     0.0     0.0    0.00    0.00   0.198   0.137   0.118   0.136   0.144   0.156   0.186   0.198   0.222   0.226   0.247   0.262   0.263   0.261   0.260
   15 233   157     459     167      13      66     307       0       0       0     210    0.00     0.0     0.0    0.00    0.00   0.183   0.136   0.118   0.136   0.143   0.156   0.186   0.198   0.222   0.226   0.247   0.262   0.263   0.261   0.260
   15 234   158     458     167      13      66     307       0       0       0     210    0.00     0.0     0.0    0.00    0.00   0.170   0.135   0.118   0.135   0.143   0.156   0.186   0.198   0.222   0.226   0.247   0.262   0.263   0.261   0.260
   15 235   159     459     168      13      66     309       0       0       0     210    0.00     0.0     0.0    0.00    0.00   0.196   0.135   0.118   0.135   0.143   0.156   0.186   0.198   0.222   0.226   0.247   0.262   0.263   0.261   0.260
   15 236   160     476     184      13      66     330       0       0       0     210    0.00     0.0     0.0    0.16    0.00   0.300   0.257   0.150   0.134   0.142   0.154   0.184   0.196   0.220   0.225   0.246   0.261   0.262   0.260   0.259
   15 237   161     473     182      13      66     332       0       0       0     210    0.00     0.0     0.0    0.00    0.00   0.269   0.255   0.182   0.132   0.140   0.153   0.183   0.195   0.219   0.224   0.245   0.259   0.261   0.259   0.258
