*Soil Organic Matter daily output file

*DSSAT Cropping System Model Ver. 4.8.5.000 -release  FEB 02, 2026 11:46:55

*RUN   1        : 1                         WHAPS048 TUDU1501    1
 MODEL          : WHAPS048 - Wheat
 EXPERIMENT     : TUDU1501 WH
 DATA PATH      :
 TREATMENT  1   : 1                         WHAPS048
  
@YEAR DOY   DAS    OMAC    SCDD    SOCD    SC0D    SCTD   SOMCT    LCTD    ONAC    SNDD    SOND    SN0D    SNTD   SOMNT    LNTD
   15 076     0       0   31829  311106       0  311106  310026  1080.0    0.00  1073.9 16892.2    0.00 16892.2 16872.7   19.50
   15 077     1       0   31405  311093       0  311093  310024  1069.3    0.00  1057.6 16892.2    0.00 16892.2 16872.5   19.65
   15 078     2       0   31405  311083       0  311083  310022  1060.3    0.00  1057.6 16892.1    0.00 16892.1 16872.4   19.78
   15 079     3       0   31405  311074       0  311074  310021  1053.3    0.00  1057.6 16892.1    0.00 16892.1 16872.2   19.87
   15 080     4       0   31420  311068       0  311068  310020  1048.4    0.00  1058.2 16892.1    0.00 16892.1 16872.2   19.93
   15 081     5       0   31421  311065       0  311065  310019  1045.3    0.00  1058.2 16892.1    0.00 16892.1 16872.1   19.97
   15 082     6       0   31421  311064       0  311064  310019  1044.7    0.00  1058.2 16892.1    0.00 16892.1 16872.1   19.98
   15 083     7       0   31421  311064       0  311064  310019  1044.6    0.00  1058.2 16892.1    0.00 16892.1 16872.1   19.98
   15 084     8       0   31421  311064       0  311064  310019  1044.6    0.00  1058.2 16892.0    0.00 16892.0 16872.1   19.99
   15 085     9       0   31421  311063       0  311063  310019  1044.1    0.00  1058.2 16892.0    0.00 16892.0 16872.0   19.99
   15 086    10       0   31428  311062       0  311062  310019  1043.6    0.00  1058.5 16892.0    0.00 16892.0 16872.0   20.00
   15 087    11       0   31428  311060       0  311060  310018  1042.2    0.00  1058.5 16892.0    0.00 16892.0 16872.0   20.02
   15 088    12       0   31428  311057       0  311057  310017  1040.0    0.00  1058.5 16892.0    0.00 16892.0 16871.9   20.05
   15 089    13       0   31477  311054       0  311054  310017  1037.0    0.00  1060.3 16891.9    0.00 16891.9 16871.9   20.09
   15 090    14       0   31496  311050       0  311050  310016  1034.2    0.00  1061.0 16891.9    0.00 16891.9 16871.8   20.12
   15 091    15       0   31514  311046       0  311046  310016  1030.9    0.00  1061.7 16891.9    0.00 16891.9 16871.7   20.16
   15 092    16       0   31536  311044       0  311044  310015  1028.6    0.00  1062.6 16891.9    0.00 16891.9 16871.7   20.18
   15 093    17       0   31536  311042       0  311042  310015  1027.6    0.00  1062.6 16891.9    0.00 16891.9 16871.7   20.20
   15 094    18       0   31557  311042       0  311042  310015  1027.6    0.00  1063.4 16891.9    0.00 16891.9 16871.7   20.20
   15 095    19       0   31557  311042       0  311042  310015  1027.6    0.00  1063.4 16891.9    0.00 16891.9 16871.7   20.20
   15 096    20       0   31557  311042       0  311042  310015  1027.6    0.00  1063.4 16891.9    0.00 16891.9 16871.7   20.20
   15 097    21       0   31557  311042       0  311042  310015  1027.6    0.00  1063.4 16891.9    0.00 16891.9 16871.7   20.20
   15 098    22       0   31557  311042       0  311042  310015  1027.6    0.00  1063.4 16891.9    0.00 16891.9 16871.7   20.20
   15 099    23       0   31557  311042       0  311042  310015  1027.6    0.00  1063.4 16891.9    0.00 16891.9 16871.7   20.20
   15 100    24       0   31557  311042       0  311042  310015  1027.5    0.00  1063.4 16891.9    0.00 16891.9 16871.7   20.20
   15 101    25       0   31558  311039       0  311039  310014  1024.9    0.00  1063.4 16891.8    0.00 16891.8 16871.6   20.23
   15 102    26       0   31558  311032       0  311032  310013  1019.1    0.00  1063.4 16891.8    0.00 16891.8 16871.5   20.29
   15 103    27       0   31558  311022       0  311022  310011  1010.8    0.00  1063.4 16891.8    0.00 16891.8 16871.4   20.38
   15 104    28       0   31558  311010       0  311010  310009  1001.3    0.00  1063.4 16891.7    0.00 16891.7 16871.2   20.48
   15 105    29       0   31558  310998       0  310998  310007   991.9    0.00  1063.4 16891.6    0.00 16891.6 16871.0   20.58
   15 106    30       0   31559  310986       0  310986  310004   982.1    0.00  1063.4 16891.5    0.00 16891.5 16870.8   20.67
   15 107    31       0   31658  310973       0  310973  310001   972.0    0.00  1067.2 16891.3    0.00 16891.3 16870.6   20.76
   15 108    32       0   31658  310957       0  310957  309998   958.7    0.00  1067.2 16891.2    0.00 16891.2 16870.4   20.86
   15 109    33       0   31659  310943       0  310943  309996   946.8    0.00  1067.2 16891.1    0.00 16891.1 16870.2   20.93
   15 110    34       0   31659  310931       0  310931  309994   936.9    0.00  1067.2 16891.0    0.00 16891.0 16870.1   20.98
   15 111    35       0   31659  310923       0  310923  309993   929.7    0.00  1067.2 16891.0    0.00 16891.0 16869.9   21.01
   15 112    36       0   31660  310917       0  310917  309992   924.6    0.00  1067.2 16890.9    0.00 16890.9 16869.9   21.03
   15 113    37       0   31660  310911       0  310911  309991   919.8    0.00  1067.2 16890.8    0.00 16890.8 16869.8   21.05
   15 114    38       0   31660  310905       0  310905  309990   915.1    0.00  1067.2 16890.8    0.00 16890.8 16869.7   21.07
   15 115    39       0   31663  310898       0  310898  309988   909.7    0.00  1067.4 16890.7    0.00 16890.7 16869.6   21.10
   15 116    40       0   31666  310890       0  310890  309986   903.7    0.00  1067.5 16890.6    0.00 16890.6 16869.4   21.12
   15 117    41       0   31682  310881       0  310881  309984   896.4    0.00  1068.1 16890.4    0.00 16890.4 16869.3   21.15
   15 118    42       0   31698  310869       0  310869  309982   887.1    0.00  1068.7 16890.3    0.00 16890.3 16869.1   21.17
   15 119    43       0   31698  310856       0  310856  309979   876.9    0.00  1068.7 16890.1    0.00 16890.1 16868.9   21.19
   15 120    44       0   31701  310844       0  310844  309977   867.2    0.00  1068.8 16890.0    0.00 16890.0 16868.8   21.20
   15 121    45       0   31760  310833       0  310833  309975   857.9    0.00  1071.0 16889.8    0.00 16889.8 16868.6   21.20
   15 122    46       0   31761  310825       0  310825  309973   852.0    0.00  1071.1 16889.7    0.00 16889.7 16868.5   21.21
   15 123    47       0   31775  310818       0  310818  309971   846.9    0.00  1071.6 16889.6    0.00 16889.6 16868.4   21.21
   15 124    48       0   31775  310810       0  310810  309969   841.2    0.00  1071.6 16889.4    0.00 16889.4 16868.2   21.21
   15 125    49       0   31779  310799       0  310799  309966   832.2    0.00  1071.8 16889.2    0.00 16889.2 16868.0   21.20
   15 126    50       0   31835  310784       0  310784  309963   821.2    0.00  1073.9 16889.0    0.00 16889.0 16867.8   21.19
   15 127    51       0   31835  310770       0  310770  309958   811.3    0.00  1073.9 16888.7    0.00 16888.7 16867.5   21.18
   15 128    52       0   31835  310754       0  310754  309954   799.6    0.00  1073.9 16888.4    0.00 16888.4 16867.2   21.16
   15 129    53       0   31835  310737       0  310737  309949   787.9    0.00  1073.9 16888.1    0.00 16888.1 16866.9   21.12
   15 130    54       0   31835  310722       0  310722  309945   777.3    0.00  1073.9 16887.7    0.00 16887.7 16866.7   21.09
   15 131    55       0   31835  310709       0  310709  309941   768.5    0.00  1073.9 16887.5    0.00 16887.5 16866.4   21.05
   15 132    56       0   31835  310696       0  310696  309936   759.8    0.00  1073.9 16887.2    0.00 16887.2 16866.1   21.02
   15 133    57       0   31835  310682       0  310682  309931   750.9    0.00  1073.9 16886.8    0.00 16886.8 16865.9   20.97
   15 134    58       0   31834  310668       0  310668  309926   741.4    0.00  1073.9 16886.5    0.00 16886.5 16865.5   20.92
   15 135    59       0   31834  310653       0  310653  309921   732.3    0.00  1073.8 16886.1    0.00 16886.1 16865.2   20.87
   15 136    60       0   31834  310639       0  310639  309916   723.9    0.00  1073.8 16885.7    0.00 16885.7 16864.9   20.81
   15 137    61       0   31834  310626       0  310626  309910   716.0    0.00  1073.8 16885.4    0.00 16885.4 16864.6   20.75
   15 138    62       0   31833  310614       0  310614  309906   708.9    0.00  1073.8 16885.0    0.00 16885.0 16864.3   20.70
   15 139    63       0   31833  310603       0  310603  309901   702.3    0.00  1073.8 16884.7    0.00 16884.7 16864.1   20.65
   15 140    64       0   31833  310592       0  310592  309897   694.9    0.00  1073.8 16884.4    0.00 16884.4 16863.8   20.58
   15 141    65       0   31833  310581       0  310581  309893   688.6    0.00  1073.8 16884.1    0.00 16884.1 16863.6   20.52
   15 142    66       0   31833  310571       0  310571  309889   682.3    0.00  1073.8 16883.8    0.00 16883.8 16863.4   20.46
   15 143    67       0   31833  310562       0  310562  309885   676.2    0.00  1073.8 16883.6    0.00 16883.6 16863.2   20.40
   15 144    68       0   31833  310554       0  310554  309883   671.3    0.00  1073.8 16883.3    0.00 16883.3 16863.0   20.35
   15 145    69       0   31833  310546       0  310546  309880   666.6    0.00  1073.8 16883.1    0.00 16883.1 16862.8   20.30
   15 146    70       0   31832  310538       0  310538  309876   661.1    0.00  1073.8 16882.9    0.00 16882.9 16862.6   20.24
   15 147    71       0   31832  310528       0  310528  309873   655.4    0.00  1073.8 16882.6    0.00 16882.6 16862.4   20.17
   15 148    72       0   31832  310519       0  310519  309869   649.7    0.00  1073.8 16882.3    0.00 16882.3 16862.2   20.10
   15 149    73       0   31832  310509       0  310509  309865   644.0    0.00  1073.8 16882.0    0.00 16882.0 16862.0   20.04
   15 150    74       0   31832  310499       0  310499  309861   637.9    0.00  1073.8 16881.7    0.00 16881.7 16861.8   19.96
   15 151    75       0   31832  310489       0  310489  309857   631.8    0.00  1073.7 16881.4    0.00 16881.4 16861.5   19.88
   15 152    76       0   31832  310478       0  310478  309852   625.2    0.00  1073.7 16881.1    0.00 16881.1 16861.3   19.80
   15 153    77       0   31831  310463       0  310463  309847   616.6    0.00  1073.7 16880.6    0.00 16880.6 16860.9   19.68
   15 154    78       0   31831  310448       0  310448  309840   607.4    0.00  1073.7 16880.1    0.00 16880.1 16860.6   19.55
   15 155    79       0   31831  310431       0  310431  309833   598.0    0.00  1073.7 16879.6    0.00 16879.6 16860.2   19.42
   15 156    80       0   31830  310415       0  310415  309825   589.0    0.00  1073.7 16879.0    0.00 16879.0 16859.7   19.28
   15 157    81       0   31830  310397       0  310397  309817   580.2    0.00  1073.7 16878.4    0.00 16878.4 16859.3   19.15
   15 158    82       0   31829  310379       0  310379  309808   570.6    0.00  1073.7 16877.8    0.00 16877.8 16858.8   19.00
   15 159    83       0   31829  310361       0  310361  309799   561.9    0.00  1073.6 16877.2    0.00 16877.2 16858.3   18.86
   15 160    84       0   31828  310342       0  310342  309791   550.6    0.00  1073.6 16876.5    0.00 16876.5 16857.8   18.66
   15 161    85       0   31828  310324       0  310324  309784   540.1    0.00  1073.6 16875.9    0.00 16875.9 16857.4   18.47
   15 162    86       0   31828  310308       0  310308  309777   531.1    0.00  1073.6 16875.3    0.00 16875.3 16857.0   18.30
   15 163    87       0   31827  310294       0  310294  309771   522.9    0.00  1073.6 16874.8    0.00 16874.8 16856.7   18.14
   15 164    88       0   31827  310280       0  310280  309764   515.4    0.00  1073.6 16874.3    0.00 16874.3 16856.3   17.99
   15 165    89       0   31827  310265       0  310265  309757   507.6    0.00  1073.6 16873.8    0.00 16873.8 16855.9   17.83
   15 166    90       0   31826  310250       0  310250  309750   499.9    0.00  1073.6 16873.2    0.00 16873.2 16855.5   17.67
   15 167    91       0   31825  310234       0  310234  309741   492.4    0.00  1073.6 16872.6    0.00 16872.6 16855.1   17.52
   15 168    92       0   31825  310218       0  310218  309734   484.2    0.00  1073.5 16872.0    0.00 16872.0 16854.7   17.34
   15 169    93       0   31825  310203       0  310203  309727   476.4    0.00  1073.5 16871.5    0.00 16871.5 16854.3   17.17
   15 170    94       0   31824  310191       0  310191  309720   470.3    0.00  1073.5 16871.0    0.00 16871.0 16853.9   17.04
   15 171    95       0   31824  310180       0  310180  309715   464.7    0.00  1073.5 16870.5    0.00 16870.5 16853.6   16.91
   15 172    96       0   31823  310169       0  310169  309710   459.3    0.00  1073.5 16870.1    0.00 16870.1 16853.3   16.79
   15 173    97       0   31823  310159       0  310159  309705   454.1    0.00  1073.5 16869.7    0.00 16869.7 16853.1   16.66
   15 174    98       0   31823  310149       0  310149  309699   449.4    0.00  1073.5 16869.3    0.00 16869.3 16852.8   16.55
   15 175    99       0   31822  310139       0  310139  309694   444.7    0.00  1073.5 16868.9    0.00 16868.9 16852.5   16.44
   15 176   100       0   31822  310128       0  310128  309689   439.6    0.00  1073.5 16868.5    0.00 16868.5 16852.2   16.32
   15 177   101       0   31822  310118       0  310118  309683   434.3    0.00  1073.4 16868.1    0.00 16868.1 16851.9   16.19
   15 178   102       0   31821  310106       0  310106  309677   429.0    0.00  1073.4 16867.6    0.00 16867.6 16851.6   16.06
   15 179   103       0   31821  310095       0  310095  309671   424.0    0.00  1073.4 16867.2    0.00 16867.2 16851.2   15.94
   15 180   104       0   31820  310083       0  310083  309664   418.8    0.00  1073.4 16866.7    0.00 16866.7 16850.9   15.80
   15 181   105       0   31820  310070       0  310070  309656   413.6    0.00  1073.4 16866.1    0.00 16866.1 16850.5   15.67
   15 182   106       0   31819  310056       0  310056  309648   408.4    0.00  1073.4 16865.5    0.00 16865.5 16850.0   15.54
   15 183   107       0   31818  310043       0  310043  309639   403.5    0.00  1073.3 16864.9    0.00 16864.9 16849.5   15.41
   15 184   108       0   31818  310029       0  310029  309630   399.0    0.00  1073.3 16864.3    0.00 16864.3 16849.0   15.29
   15 185   109       0   31817  310016       0  310016  309621   394.8    0.00  1073.3 16863.7    0.00 16863.7 16848.5   15.18
   15 186   110       0   31816  310002       0  310002  309612   390.8    0.00  1073.3 16863.1    0.00 16863.1 16848.0   15.08
   15 187   111       0   31816  309989       0  309989  309602   387.1    0.00  1073.3 16862.4    0.00 16862.4 16847.5   14.98
   15 188   112       0   31815  309977       0  309977  309593   383.9    0.00  1073.2 16861.8    0.00 16861.8 16846.9   14.89
   15 189   113       0   31814  309963       0  309963  309584   379.7    0.00  1073.2 16861.2    0.00 16861.2 16846.4   14.78
   15 190   114       0   31814  309950       0  309950  309575   374.6    0.00  1073.2 16860.5    0.00 16860.5 16845.9   14.64
   15 191   115       0   31813  309938       0  309938  309567   370.4    0.00  1073.2 16860.0    0.00 16860.0 16845.4   14.52
   15 192   116       0   31812  309928       0  309928  309561   367.2    0.00  1073.2 16859.5    0.00 16859.5 16845.1   14.43
   15 193   117       0   31812  309919       0  309919  309554   364.6    0.00  1073.1 16859.1    0.00 16859.1 16844.7   14.36
   15 194   118       0   31812  309912       0  309912  309549   362.8    0.00  1073.1 16858.7    0.00 16858.7 16844.4   14.31
   15 195   119       0   31811  309905       0  309905  309544   361.1    0.00  1073.1 16858.3    0.00 16858.3 16844.1   14.26
   15 196   120       0   31811  309897       0  309897  309538   359.3    0.00  1073.1 16857.9    0.00 16857.9 16843.7   14.21
   15 197   121       0   31810  309890       0  309890  309532   357.6    0.00  1073.1 16857.5    0.00 16857.5 16843.3   14.16
   15 198   122       0   31810  309882       0  309882  309526   356.1    0.00  1073.1 16857.1    0.00 16857.1 16843.0   14.12
   15 199   123       0   31809  309875       0  309875  309520   354.7    0.00  1073.1 16856.7    0.00 16856.7 16842.6   14.08
   15 200   124       0   31809  309867       0  309867  309514   353.6    0.00  1073.0 16856.2    0.00 16856.2 16842.2   14.05
   15 201   125       0   31809  309860       0  309860  309508   352.7    0.00  1073.0 16855.8    0.00 16855.8 16841.8   14.02
   15 202   126       0   31808  309854       0  309854  309502   351.9    0.00  1073.0 16855.4    0.00 16855.4 16841.4   14.00
   15 203   127       0   31808  309847       0  309847  309496   351.2    0.00  1073.0 16855.1    0.00 16855.1 16841.1   13.98
   15 204   128       0   31807  309841       0  309841  309491   350.6    0.00  1073.0 16854.7    0.00 16854.7 16840.7   13.97
   15 205   129       0   31807  309835       0  309835  309485   349.9    0.00  1073.0 16854.3    0.00 16854.3 16840.4   13.95
   15 206   130       0   31807  309829       0  309829  309480   349.4    0.00  1073.0 16854.0    0.00 16854.0 16840.0   13.93
   15 207   131       0   31806  309824       0  309824  309475   348.9    0.00  1073.0 16853.6    0.00 16853.6 16839.7   13.92
   15 208   132       0   31806  309819       0  309819  309470   348.5    0.00  1072.9 16853.3    0.00 16853.3 16839.4   13.91
   15 209   133       0   31806  309814       0  309814  309466   347.7    0.00  1072.9 16853.0    0.00 16853.0 16839.1   13.88
   15 210   134       0   31805  309809       0  309809  309462   347.0    0.00  1072.9 16852.7    0.00 16852.7 16838.9   13.86
   15 211   135       0   31805  309805       0  309805  309458   346.3    0.00  1072.9 16852.5    0.00 16852.5 16838.6   13.84
   15 212   136       0   31805  309801       0  309801  309455   345.9    0.00  1072.9 16852.2    0.00 16852.2 16838.4   13.83
   15 213   137       0   31804  309797       0  309797  309452   345.5    0.00  1072.9 16852.0    0.00 16852.0 16838.2   13.81
   15 214   138       0   31804  309793       0  309793  309448   345.1    0.00  1072.9 16851.8    0.00 16851.8 16838.0   13.80
   15 215   139       0   31804  309790       0  309790  309445   344.8    0.00  1072.9 16851.5    0.00 16851.5 16837.8   13.79
   15 216   140       0   31804  309786       0  309786  309441   344.5    0.00  1072.9 16851.3    0.00 16851.3 16837.5   13.78
   15 217   141       0   31803  309781       0  309781  309437   344.2    0.00  1072.9 16851.0    0.00 16851.0 16837.2   13.77
   15 218   142       0   31803  309777       0  309777  309433   343.9    0.00  1072.8 16850.7    0.00 16850.7 16837.0   13.76
   15 219   143       0   31803  309772       0  309772  309428   343.6    0.00  1072.8 16850.4    0.00 16850.4 16836.7   13.76
   15 220   144       0   31802  309766       0  309766  309423   343.3    0.00  1072.8 16850.1    0.00 16850.1 16836.3   13.75
   15 221   145       0   31802  309761       0  309761  309418   342.8    0.00  1072.8 16849.7    0.00 16849.7 16836.0   13.73
   15 222   146       0   31802  309755       0  309755  309412   342.4    0.00  1072.8 16849.4    0.00 16849.4 16835.6   13.72
   15 223   147       0   31801  309749       0  309749  309407   342.1    0.00  1072.8 16849.0    0.00 16849.0 16835.3   13.71
   15 224   148       0   31801  309743       0  309743  309401   341.8    0.00  1072.8 16848.6    0.00 16848.6 16834.9   13.70
   15 225   149       0   31800  309737       0  309737  309396   341.5    0.00  1072.8 16848.3    0.00 16848.3 16834.6   13.69
   15 226   150       0   31800  309732       0  309732  309390   341.2    0.00  1072.7 16847.9    0.00 16847.9 16834.2   13.68
   15 227   151       0   31800  309725       0  309725  309385   340.0    0.00  1072.7 16847.5    0.00 16847.5 16833.9   13.64
   15 228   152       0   31799  309718       0  309718  309379   339.1    0.00  1072.7 16847.1    0.00 16847.1 16833.5   13.61
   15 229   153       0   31799  309711       0  309711  309374   337.1    0.00  1072.7 16846.7    0.00 16846.7 16833.2   13.55
   15 230   154       0   31798  309704       0  309704  309369   335.3    0.00  1072.7 16846.4    0.00 16846.4 16832.9   13.50
   15 231   155       0   31798  309698       0  309698  309365   333.6    0.00  1072.7 16846.0    0.00 16846.0 16832.6   13.44
   15 232   156       0   31797  309693       0  309693  309361   332.3    0.00  1072.7 16845.7    0.00 16845.7 16832.3   13.40
   15 233   157       0   31797  309688       0  309688  309357   331.1    0.00  1072.6 16845.5    0.00 16845.5 16832.1   13.36
   15 234   158       0   31797  309683       0  309683  309353   330.1    0.00  1072.6 16845.2    0.00 16845.2 16831.9   13.33
   15 235   159       0   31797  309679       0  309679  309349   329.2    0.00  1072.6 16844.9    0.00 16844.9 16831.6   13.30
   15 236   160       0   31796  309673       0  309673  309345   328.0    0.00  1072.6 16844.6    0.00 16844.6 16831.3   13.26
   15 237   161       0   31795  309665       0  309665  309341   324.5    0.00  1072.6 16844.2    0.00 16844.2 16831.1   13.15

*DSSAT Cropping System Model Ver. 4.8.5.000 -release  FEB 02, 2026 11:46:55

*RUN   2        : 2                         WHAPS048 TUDU1501    2
 MODEL          : WHAPS048 - Wheat
 EXPERIMENT     : TUDU1501 WH
 DATA PATH      :
 TREATMENT  2   : 2                         WHAPS048
  
@YEAR DOY   DAS    OMAC    SCDD    SOCD    SC0D    SCTD   SOMCT    LCTD    ONAC    SNDD    SOND    SN0D    SNTD   SOMNT    LNTD
   15 076     0       0   31829  311106       0  311106  310026  1080.0    0.00  1073.9 16892.2    0.00 16892.2 16872.7   19.50
   15 077     1       0   31405  311093       0  311093  310024  1069.3    0.00  1057.6 16892.2    0.00 16892.2 16872.5   19.65
   15 078     2       0   31405  311083       0  311083  310022  1060.3    0.00  1057.6 16892.1    0.00 16892.1 16872.4   19.78
   15 079     3       0   31405  311074       0  311074  310021  1053.3    0.00  1057.6 16892.1    0.00 16892.1 16872.2   19.87
   15 080     4       0   31420  311068       0  311068  310020  1048.4    0.00  1058.2 16892.1    0.00 16892.1 16872.2   19.93
   15 081     5       0   31421  311065       0  311065  310019  1045.3    0.00  1058.2 16892.1    0.00 16892.1 16872.1   19.97
   15 082     6       0   31421  311064       0  311064  310019  1044.7    0.00  1058.2 16892.1    0.00 16892.1 16872.1   19.98
   15 083     7       0   31421  311064       0  311064  310019  1044.6    0.00  1058.2 16892.1    0.00 16892.1 16872.1   19.98
   15 084     8       0   31421  311064       0  311064  310019  1044.6    0.00  1058.2 16892.0    0.00 16892.0 16872.1   19.99
   15 085     9       0   31421  311063       0  311063  310019  1044.1    0.00  1058.2 16892.0    0.00 16892.0 16872.0   19.99
   15 086    10       0   31428  311062       0  311062  310019  1043.6    0.00  1058.5 16892.0    0.00 16892.0 16872.0   20.00
   15 087    11       0   31428  311060       0  311060  310018  1042.2    0.00  1058.5 16892.0    0.00 16892.0 16872.0   20.02
   15 088    12       0   31428  311057       0  311057  310017  1040.0    0.00  1058.5 16892.0    0.00 16892.0 16871.9   20.05
   15 089    13       0   31477  311054       0  311054  310017  1037.0    0.00  1060.3 16891.9    0.00 16891.9 16871.9   20.09
   15 090    14       0   31496  311050       0  311050  310016  1034.2    0.00  1061.0 16891.9    0.00 16891.9 16871.8   20.12
   15 091    15       0   31514  311046       0  311046  310016  1030.9    0.00  1061.7 16891.9    0.00 16891.9 16871.7   20.16
   15 092    16       0   31536  311044       0  311044  310015  1028.6    0.00  1062.6 16891.9    0.00 16891.9 16871.7   20.18
   15 093    17       0   31536  311042       0  311042  310015  1027.6    0.00  1062.6 16891.9    0.00 16891.9 16871.7   20.20
   15 094    18       0   31557  311042       0  311042  310015  1027.6    0.00  1063.4 16891.9    0.00 16891.9 16871.7   20.20
   15 095    19       0   31557  311042       0  311042  310015  1027.6    0.00  1063.4 16891.9    0.00 16891.9 16871.7   20.20
   15 096    20       0   31557  311042       0  311042  310015  1027.6    0.00  1063.4 16891.9    0.00 16891.9 16871.7   20.20
   15 097    21       0   31557  311042       0  311042  310015  1027.6    0.00  1063.4 16891.9    0.00 16891.9 16871.7   20.20
   15 098    22       0   31557  311042       0  311042  310015  1027.6    0.00  1063.4 16891.9    0.00 16891.9 16871.7   20.20
   15 099    23       0   31557  311042       0  311042  310015  1027.6    0.00  1063.4 16891.9    0.00 16891.9 16871.7   20.20
   15 100    24       0   31557  311042       0  311042  310015  1027.5    0.00  1063.4 16891.9    0.00 16891.9 16871.7   20.20
   15 101    25       0   31558  311039       0  311039  310014  1024.9    0.00  1063.4 16891.8    0.00 16891.8 16871.6   20.23
   15 102    26       0   31558  311032       0  311032  310013  1019.1    0.00  1063.4 16891.8    0.00 16891.8 16871.5   20.29
   15 103    27       0   31558  311022       0  311022  310011  1010.8    0.00  1063.4 16891.8    0.00 16891.8 16871.4   20.38
   15 104    28       0   31558  311010       0  311010  310009  1001.3    0.00  1063.4 16891.7    0.00 16891.7 16871.2   20.48
   15 105    29       0   31558  310998       0  310998  310007   991.8    0.00  1063.4 16891.6    0.00 16891.6 16871.0   20.58
   15 106    30       0   31559  310986       0  310986  310004   982.0    0.00  1063.4 16891.5    0.00 16891.5 16870.8   20.67
   15 107    31       0   31658  310973       0  310973  310001   972.0    0.00  1067.2 16891.3    0.00 16891.3 16870.6   20.76
   15 108    32       0   31658  310957       0  310957  309998   958.7    0.00  1067.2 16891.2    0.00 16891.2 16870.4   20.86
   15 109    33       0   31659  310943       0  310943  309996   946.8    0.00  1067.2 16891.1    0.00 16891.1 16870.2   20.93
   15 110    34       0   31659  310931       0  310931  309994   936.8    0.00  1067.2 16891.0    0.00 16891.0 16870.1   20.98
   15 111    35       0   31659  310923       0  310923  309993   929.6    0.00  1067.2 16891.0    0.00 16891.0 16870.0   21.01
   15 112    36       0   31660  310917       0  310917  309992   924.5    0.00  1067.2 16890.9    0.00 16890.9 16869.9   21.03
   15 113    37       0   31660  310911       0  310911  309991   919.8    0.00  1067.2 16890.8    0.00 16890.8 16869.8   21.05
   15 114    38       0   31660  310905       0  310905  309990   915.1    0.00  1067.2 16890.8    0.00 16890.8 16869.7   21.07
   15 115    39       0   31663  310898       0  310898  309988   909.7    0.00  1067.4 16890.7    0.00 16890.7 16869.6   21.10
   15 116    40       0   31666  310890       0  310890  309986   903.6    0.00  1067.5 16890.6    0.00 16890.6 16869.4   21.12
   15 117    41       0   31682  310881       0  310881  309984   896.4    0.00  1068.1 16890.4    0.00 16890.4 16869.3   21.15
   15 118    42       0   31698  310869       0  310869  309982   887.1    0.00  1068.7 16890.3    0.00 16890.3 16869.1   21.17
   15 119    43       0   31698  310856       0  310856  309979   877.0    0.00  1068.7 16890.1    0.00 16890.1 16868.9   21.19
   15 120    44       0   31701  310844       0  310844  309977   867.3    0.00  1068.8 16890.0    0.00 16890.0 16868.8   21.20
   15 121    45       0   31760  310833       0  310833  309975   858.0    0.00  1071.0 16889.8    0.00 16889.8 16868.6   21.20
   15 122    46       0   31761  310825       0  310825  309973   852.0    0.00  1071.1 16889.7    0.00 16889.7 16868.5   21.21
   15 123    47       0   31775  310818       0  310818  309971   846.9    0.00  1071.6 16889.6    0.00 16889.6 16868.4   21.21
   15 124    48       0   31775  310810       0  310810  309969   841.1    0.00  1071.6 16889.4    0.00 16889.4 16868.2   21.20
   15 125    49       0   31779  310798       0  310798  309966   831.9    0.00  1071.8 16889.2    0.00 16889.2 16868.0   21.20
   15 126    50       0   31835  310784       0  310784  309963   820.8    0.00  1073.9 16889.0    0.00 16889.0 16867.8   21.19
   15 127    51       0   31835  310769       0  310769  309958   810.8    0.00  1073.9 16888.7    0.00 16888.7 16867.5   21.18
   15 128    52       0   31835  310753       0  310753  309954   799.1    0.00  1073.9 16888.4    0.00 16888.4 16867.2   21.15
   15 129    53       0   31835  310736       0  310736  309949   787.0    0.00  1073.9 16888.1    0.00 16888.1 16866.9   21.12
   15 130    54       0   31835  310721       0  310721  309945   776.4    0.00  1073.9 16887.7    0.00 16887.7 16866.7   21.08
   15 131    55       0   31835  310709       0  310709  309941   767.5    0.00  1073.9 16887.5    0.00 16887.5 16866.4   21.05
   15 132    56       0   31835  310695       0  310695  309937   758.8    0.00  1073.9 16887.2    0.00 16887.2 16866.2   21.01
   15 133    57       0   31835  310682       0  310682  309932   749.9    0.00  1073.9 16886.8    0.00 16886.8 16865.9   20.97
   15 134    58       0   31834  310667       0  310667  309926   740.3    0.00  1073.9 16886.5    0.00 16886.5 16865.5   20.91
   15 135    59       0   31834  310652       0  310652  309921   731.2    0.00  1073.8 16886.1    0.00 16886.1 16865.2   20.86
   15 136    60       0   31834  310639       0  310639  309916   722.8    0.00  1073.8 16885.7    0.00 16885.7 16864.9   20.80
   15 137    61       0   31834  310625       0  310625  309911   714.8    0.00  1073.8 16885.4    0.00 16885.4 16864.6   20.74
   15 138    62       0   31834  310613       0  310613  309906   707.7    0.00  1073.8 16885.0    0.00 16885.0 16864.3   20.69
   15 139    63       0   31833  310602       0  310602  309901   701.1    0.00  1073.8 16884.7    0.00 16884.7 16864.1   20.63
   15 140    64       0   31833  310591       0  310591  309897   693.7    0.00  1073.8 16884.4    0.00 16884.4 16863.8   20.57
   15 141    65       0   31833  310580       0  310580  309893   687.3    0.00  1073.8 16884.1    0.00 16884.1 16863.6   20.51
   15 142    66       0   31833  310570       0  310570  309889   681.0    0.00  1073.8 16883.8    0.00 16883.8 16863.4   20.45
   15 143    67       0   31833  310561       0  310561  309886   675.0    0.00  1073.8 16883.6    0.00 16883.6 16863.2   20.39
   15 144    68       0   31833  310553       0  310553  309883   670.0    0.00  1073.8 16883.3    0.00 16883.3 16863.0   20.33
   15 145    69       0   31833  310545       0  310545  309880   665.2    0.00  1073.8 16883.1    0.00 16883.1 16862.8   20.28
   15 146    70       0   31833  310536       0  310536  309877   659.7    0.00  1073.8 16882.9    0.00 16882.9 16862.6   20.22
   15 147    71       0   31832  310527       0  310527  309873   653.9    0.00  1073.8 16882.6    0.00 16882.6 16862.4   20.15
   15 148    72       0   31832  310518       0  310518  309869   648.2    0.00  1073.8 16882.3    0.00 16882.3 16862.2   20.09
   15 149    73       0   31832  310508       0  310508  309866   642.5    0.00  1073.8 16882.0    0.00 16882.0 16862.0   20.02
   15 150    74       0   31832  310498       0  310498  309862   636.4    0.00  1073.8 16881.7    0.00 16881.7 16861.8   19.94
   15 151    75       0   31832  310488       0  310488  309857   630.3    0.00  1073.8 16881.4    0.00 16881.4 16861.5   19.86
   15 152    76       0   31832  310476       0  310476  309853   623.7    0.00  1073.7 16881.0    0.00 16881.0 16861.3   19.78
   15 153    77       0   31831  310462       0  310462  309847   615.2    0.00  1073.7 16880.6    0.00 16880.6 16860.9   19.66
   15 154    78       0   31831  310447       0  310447  309841   606.1    0.00  1073.7 16880.1    0.00 16880.1 16860.6   19.53
   15 155    79       0   31831  310430       0  310430  309833   596.9    0.00  1073.7 16879.6    0.00 16879.6 16860.2   19.40
   15 156    80       0   31830  310414       0  310414  309826   587.9    0.00  1073.7 16879.0    0.00 16879.0 16859.8   19.27
   15 157    81       0   31830  310396       0  310396  309817   579.2    0.00  1073.7 16878.4    0.00 16878.4 16859.3   19.13
   15 158    82       0   31829  310378       0  310378  309808   569.6    0.00  1073.7 16877.8    0.00 16877.8 16858.8   18.98
   15 159    83       0   31829  310361       0  310361  309800   560.9    0.00  1073.6 16877.1    0.00 16877.1 16858.3   18.84
   15 160    84       0   31828  310341       0  310341  309791   549.7    0.00  1073.6 16876.5    0.00 16876.5 16857.8   18.64
   15 161    85       0   31828  310323       0  310323  309784   539.2    0.00  1073.6 16875.9    0.00 16875.9 16857.4   18.45
   15 162    86       0   31828  310308       0  310308  309777   530.2    0.00  1073.6 16875.3    0.00 16875.3 16857.0   18.28
   15 163    87       0   31827  310293       0  310293  309771   522.1    0.00  1073.6 16874.8    0.00 16874.8 16856.7   18.12
   15 164    88       0   31827  310279       0  310279  309765   514.5    0.00  1073.6 16874.3    0.00 16874.3 16856.3   17.97
   15 165    89       0   31827  310265       0  310265  309758   506.7    0.00  1073.6 16873.8    0.00 16873.8 16856.0   17.81
   15 166    90       0   31826  310249       0  310249  309750   499.1    0.00  1073.6 16873.2    0.00 16873.2 16855.5   17.66
   15 167    91       0   31826  310233       0  310233  309742   491.6    0.00  1073.6 16872.6    0.00 16872.6 16855.1   17.50
   15 168    92       0   31825  310218       0  310218  309734   483.4    0.00  1073.5 16872.0    0.00 16872.0 16854.7   17.33
   15 169    93       0   31825  310203       0  310203  309727   475.7    0.00  1073.5 16871.4    0.00 16871.4 16854.3   17.16
   15 170    94       0   31824  310190       0  310190  309721   469.6    0.00  1073.5 16871.0    0.00 16871.0 16853.9   17.02
   15 171    95       0   31824  310179       0  310179  309715   464.0    0.00  1073.5 16870.5    0.00 16870.5 16853.6   16.89
   15 172    96       0   31823  310169       0  310169  309710   458.5    0.00  1073.5 16870.1    0.00 16870.1 16853.3   16.77
   15 173    97       0   31823  310158       0  310158  309705   453.4    0.00  1073.5 16869.7    0.00 16869.7 16853.1   16.65
   15 174    98       0   31823  310148       0  310148  309700   448.7    0.00  1073.5 16869.3    0.00 16869.3 16852.8   16.54
   15 175    99       0   31822  310138       0  310138  309694   444.0    0.00  1073.5 16868.9    0.00 16868.9 16852.5   16.43
   15 176   100       0   31822  310128       0  310128  309689   439.0    0.00  1073.5 16868.5    0.00 16868.5 16852.2   16.30
   15 177   101       0   31822  310117       0  310117  309684   433.7    0.00  1073.4 16868.1    0.00 16868.1 16851.9   16.17
   15 178   102       0   31821  310106       0  310106  309678   428.4    0.00  1073.4 16867.6    0.00 16867.6 16851.6   16.04
   15 179   103       0   31821  310095       0  310095  309671   423.4    0.00  1073.4 16867.2    0.00 16867.2 16851.2   15.92
   15 180   104       0   31820  310082       0  310082  309664   418.2    0.00  1073.4 16866.7    0.00 16866.7 16850.9   15.79
   15 181   105       0   31820  310070       0  310070  309657   413.0    0.00  1073.4 16866.1    0.00 16866.1 16850.5   15.65
   15 182   106       0   31819  310056       0  310056  309648   407.7    0.00  1073.4 16865.5    0.00 16865.5 16850.0   15.52
   15 183   107       0   31818  310042       0  310042  309639   402.8    0.00  1073.3 16864.9    0.00 16864.9 16849.5   15.39
   15 184   108       0   31818  310029       0  310029  309630   398.3    0.00  1073.3 16864.3    0.00 16864.3 16849.0   15.27
   15 185   109       0   31817  310015       0  310015  309621   394.0    0.00  1073.3 16863.7    0.00 16863.7 16848.5   15.16
   15 186   110       0   31816  310002       0  310002  309612   390.1    0.00  1073.3 16863.1    0.00 16863.1 16848.0   15.06
   15 187   111       0   31816  309989       0  309989  309603   386.4    0.00  1073.3 16862.4    0.00 16862.4 16847.5   14.96
   15 188   112       0   31815  309977       0  309977  309593   383.2    0.00  1073.2 16861.8    0.00 16861.8 16847.0   14.87
   15 189   113       0   31814  309963       0  309963  309584   379.0    0.00  1073.2 16861.2    0.00 16861.2 16846.4   14.76
   15 190   114       0   31814  309949       0  309949  309575   373.9    0.00  1073.2 16860.5    0.00 16860.5 16845.9   14.62
   15 191   115       0   31813  309937       0  309937  309568   369.8    0.00  1073.2 16860.0    0.00 16860.0 16845.5   14.50
   15 192   116       0   31812  309928       0  309928  309561   366.5    0.00  1073.2 16859.5    0.00 16859.5 16845.1   14.41
   15 193   117       0   31812  309919       0  309919  309555   364.0    0.00  1073.1 16859.1    0.00 16859.1 16844.7   14.34
   15 194   118       0   31812  309912       0  309912  309550   362.2    0.00  1073.1 16858.7    0.00 16858.7 16844.4   14.29
   15 195   119       0   31811  309905       0  309905  309544   360.5    0.00  1073.1 16858.3    0.00 16858.3 16844.1   14.24
   15 196   120       0   31811  309897       0  309897  309539   358.7    0.00  1073.1 16857.9    0.00 16857.9 16843.7   14.19
   15 197   121       0   31810  309890       0  309890  309533   357.0    0.00  1073.1 16857.5    0.00 16857.5 16843.4   14.14
   15 198   122       0   31810  309882       0  309882  309527   355.5    0.00  1073.1 16857.1    0.00 16857.1 16843.0   14.10
   15 199   123       0   31810  309875       0  309875  309521   354.2    0.00  1073.1 16856.7    0.00 16856.7 16842.6   14.07
   15 200   124       0   31809  309868       0  309868  309515   353.1    0.00  1073.0 16856.3    0.00 16856.3 16842.2   14.03
   15 201   125       0   31809  309861       0  309861  309509   352.2    0.00  1073.0 16855.9    0.00 16855.9 16841.9   14.01
   15 202   126       0   31808  309854       0  309854  309503   351.4    0.00  1073.0 16855.5    0.00 16855.5 16841.5   13.99
   15 203   127       0   31808  309848       0  309848  309497   350.7    0.00  1073.0 16855.1    0.00 16855.1 16841.1   13.97
   15 204   128       0   31807  309842       0  309842  309492   350.2    0.00  1073.0 16854.7    0.00 16854.7 16840.8   13.95
   15 205   129       0   31807  309836       0  309836  309486   349.5    0.00  1073.0 16854.4    0.00 16854.4 16840.4   13.93
   15 206   130       0   31807  309830       0  309830  309481   348.9    0.00  1073.0 16854.0    0.00 16854.0 16840.1   13.92
   15 207   131       0   31806  309825       0  309825  309476   348.5    0.00  1073.0 16853.7    0.00 16853.7 16839.8   13.90
   15 208   132       0   31806  309820       0  309820  309472   348.1    0.00  1072.9 16853.4    0.00 16853.4 16839.5   13.89
   15 209   133       0   31806  309815       0  309815  309468   347.3    0.00  1072.9 16853.1    0.00 16853.1 16839.2   13.87
   15 210   134       0   31805  309810       0  309810  309464   346.6    0.00  1072.9 16852.8    0.00 16852.8 16839.0   13.85
   15 211   135       0   31805  309806       0  309806  309460   346.0    0.00  1072.9 16852.5    0.00 16852.5 16838.7   13.83
   15 212   136       0   31805  309802       0  309802  309456   345.5    0.00  1072.9 16852.3    0.00 16852.3 16838.5   13.81
   15 213   137       0   31805  309798       0  309798  309453   345.1    0.00  1072.9 16852.1    0.00 16852.1 16838.3   13.80
   15 214   138       0   31804  309795       0  309795  309450   344.8    0.00  1072.9 16851.8    0.00 16851.8 16838.1   13.79
   15 215   139       0   31804  309791       0  309791  309446   344.4    0.00  1072.9 16851.6    0.00 16851.6 16837.8   13.78
   15 216   140       0   31804  309787       0  309787  309443   344.1    0.00  1072.9 16851.4    0.00 16851.4 16837.6   13.77
   15 217   141       0   31803  309783       0  309783  309439   343.8    0.00  1072.9 16851.1    0.00 16851.1 16837.3   13.76
   15 218   142       0   31803  309778       0  309778  309434   343.6    0.00  1072.8 16850.8    0.00 16850.8 16837.1   13.75
   15 219   143       0   31803  309773       0  309773  309430   343.3    0.00  1072.8 16850.5    0.00 16850.5 16836.7   13.75
   15 220   144       0   31802  309768       0  309768  309425   343.0    0.00  1072.8 16850.2    0.00 16850.2 16836.4   13.74
   15 221   145       0   31802  309762       0  309762  309420   342.6    0.00  1072.8 16849.8    0.00 16849.8 16836.1   13.72
   15 222   146       0   31802  309756       0  309756  309414   342.2    0.00  1072.8 16849.5    0.00 16849.5 16835.7   13.71
   15 223   147       0   31801  309751       0  309751  309409   341.9    0.00  1072.8 16849.1    0.00 16849.1 16835.4   13.70
   15 224   148       0   31801  309745       0  309745  309403   341.6    0.00  1072.8 16848.7    0.00 16848.7 16835.0   13.69
   15 225   149       0   31800  309739       0  309739  309398   341.3    0.00  1072.8 16848.4    0.00 16848.4 16834.7   13.68
   15 226   150       0   31800  309733       0  309733  309392   341.0    0.00  1072.7 16848.0    0.00 16848.0 16834.3   13.67
   15 227   151       0   31800  309727       0  309727  309387   339.9    0.00  1072.7 16847.6    0.00 16847.6 16834.0   13.64
   15 228   152       0   31799  309720       0  309720  309381   338.9    0.00  1072.7 16847.2    0.00 16847.2 16833.6   13.61
   15 229   153       0   31799  309713       0  309713  309376   337.0    0.00  1072.7 16846.8    0.00 16846.8 16833.3   13.55
   15 230   154       0   31798  309707       0  309707  309371   335.2    0.00  1072.7 16846.5    0.00 16846.5 16833.0   13.49
   15 231   155       0   31798  309701       0  309701  309367   333.5    0.00  1072.7 16846.2    0.00 16846.2 16832.7   13.44
   15 232   156       0   31798  309695       0  309695  309363   332.2    0.00  1072.7 16845.9    0.00 16845.9 16832.5   13.39
   15 233   157       0   31797  309690       0  309690  309359   331.1    0.00  1072.6 16845.6    0.00 16845.6 16832.2   13.36
   15 234   158       0   31797  309686       0  309686  309356   330.1    0.00  1072.6 16845.3    0.00 16845.3 16832.0   13.32
   15 235   159       0   31797  309681       0  309681  309352   329.1    0.00  1072.6 16845.0    0.00 16845.0 16831.7   13.29
   15 236   160       0   31796  309676       0  309676  309348   328.0    0.00  1072.6 16844.7    0.00 16844.7 16831.5   13.26
   15 237   161       0   31796  309668       0  309668  309343   324.5    0.00  1072.6 16844.3    0.00 16844.3 16831.2   13.14

*DSSAT Cropping System Model Ver. 4.8.5.000 -release  FEB 02, 2026 11:46:55

*RUN   3        : 3                         WHAPS048 TUDU1501    3
 MODEL          : WHAPS048 - Wheat
 EXPERIMENT     : TUDU1501 WH
 DATA PATH      :
 TREATMENT  3   : 3                         WHAPS048
  
@YEAR DOY   DAS    OMAC    SCDD    SOCD    SC0D    SCTD   SOMCT    LCTD    ONAC    SNDD    SOND    SN0D    SNTD   SOMNT    LNTD
   15 076     0       0   31829  311106       0  311106  310026  1080.0    0.00  1073.9 16892.2    0.00 16892.2 16872.7   19.50
   15 077     1       0   31405  311093       0  311093  310024  1069.3    0.00  1057.6 16892.2    0.00 16892.2 16872.5   19.65
   15 078     2       0   31405  311083       0  311083  310022  1060.3    0.00  1057.6 16892.1    0.00 16892.1 16872.4   19.78
   15 079     3       0   31405  311074       0  311074  310021  1053.3    0.00  1057.6 16892.1    0.00 16892.1 16872.2   19.87
   15 080     4       0   31420  311068       0  311068  310020  1048.4    0.00  1058.2 16892.1    0.00 16892.1 16872.2   19.93
   15 081     5       0   31421  311065       0  311065  310019  1045.3    0.00  1058.2 16892.1    0.00 16892.1 16872.1   19.97
   15 082     6       0   31421  311064       0  311064  310019  1044.7    0.00  1058.2 16892.1    0.00 16892.1 16872.1   19.98
   15 083     7       0   31421  311064       0  311064  310019  1044.6    0.00  1058.2 16892.1    0.00 16892.1 16872.1   19.98
   15 084     8       0   31421  311064       0  311064  310019  1044.6    0.00  1058.2 16892.0    0.00 16892.0 16872.1   19.99
   15 085     9       0   31421  311063       0  311063  310019  1044.1    0.00  1058.2 16892.0    0.00 16892.0 16872.0   19.99
   15 086    10       0   31428  311062       0  311062  310019  1043.6    0.00  1058.5 16892.0    0.00 16892.0 16872.0   20.00
   15 087    11       0   31428  311060       0  311060  310018  1042.2    0.00  1058.5 16892.0    0.00 16892.0 16872.0   20.02
   15 088    12       0   31428  311057       0  311057  310017  1040.0    0.00  1058.5 16892.0    0.00 16892.0 16871.9   20.05
   15 089    13       0   31477  311054       0  311054  310017  1037.0    0.00  1060.3 16891.9    0.00 16891.9 16871.9   20.09
   15 090    14       0   31496  311050       0  311050  310016  1034.2    0.00  1061.0 16891.9    0.00 16891.9 16871.8   20.12
   15 091    15       0   31514  311046       0  311046  310016  1030.9    0.00  1061.7 16891.9    0.00 16891.9 16871.7   20.16
   15 092    16       0   31536  311044       0  311044  310015  1028.6    0.00  1062.6 16891.9    0.00 16891.9 16871.7   20.18
   15 093    17       0   31536  311042       0  311042  310015  1027.6    0.00  1062.6 16891.9    0.00 16891.9 16871.7   20.20
   15 094    18       0   31557  311042       0  311042  310015  1027.6    0.00  1063.4 16891.9    0.00 16891.9 16871.7   20.20
   15 095    19       0   31557  311042       0  311042  310015  1027.6    0.00  1063.4 16891.9    0.00 16891.9 16871.7   20.20
   15 096    20       0   31557  311042       0  311042  310015  1027.6    0.00  1063.4 16891.9    0.00 16891.9 16871.7   20.20
   15 097    21       0   31557  311042       0  311042  310015  1027.6    0.00  1063.4 16891.9    0.00 16891.9 16871.7   20.20
   15 098    22       0   31557  311042       0  311042  310015  1027.6    0.00  1063.4 16891.9    0.00 16891.9 16871.7   20.20
   15 099    23       0   31557  311042       0  311042  310015  1027.6    0.00  1063.4 16891.9    0.00 16891.9 16871.7   20.20
   15 100    24       0   31557  311042       0  311042  310015  1027.5    0.00  1063.4 16891.9    0.00 16891.9 16871.7   20.20
   15 101    25       0   31558  311039       0  311039  310014  1025.0    0.00  1063.4 16891.8    0.00 16891.8 16871.6   20.23
   15 102    26       0   31558  311032       0  311032  310013  1019.4    0.00  1063.4 16891.8    0.00 16891.8 16871.5   20.29
   15 103    27       0   31558  311022       0  311022  310011  1011.3    0.00  1063.4 16891.8    0.00 16891.8 16871.4   20.38
   15 104    28       0   31558  311011       0  311011  310009  1002.1    0.00  1063.4 16891.7    0.00 16891.7 16871.2   20.48
   15 105    29       0   31558  310999       0  310999  310006   993.0    0.00  1063.4 16891.6    0.00 16891.6 16871.0   20.57
   15 106    30       0   31558  310987       0  310987  310003   983.5    0.00  1063.4 16891.5    0.00 16891.5 16870.8   20.67
   15 107    31       0   31658  310974       0  310974  310000   973.6    0.00  1067.2 16891.3    0.00 16891.3 16870.6   20.76
   15 108    32       0   31658  310960       0  310960  309997   962.3    0.00  1067.2 16891.2    0.00 16891.2 16870.4   20.85
   15 109    33       0   31658  310947       0  310947  309995   952.2    0.00  1067.2 16891.1    0.00 16891.1 16870.2   20.92
   15 110    34       0   31658  310937       0  310937  309993   943.9    0.00  1067.2 16891.0    0.00 16891.0 16870.0   20.97
   15 111    35       0   31659  310929       0  310929  309992   937.8    0.00  1067.2 16890.9    0.00 16890.9 16869.9   21.00
   15 112    36       0   31659  310924       0  310924  309990   933.5    0.00  1067.2 16890.8    0.00 16890.8 16869.8   21.03
   15 113    37       0   31659  310918       0  310918  309989   929.4    0.00  1067.2 16890.8    0.00 16890.8 16869.7   21.05
   15 114    38       0   31659  310913       0  310913  309988   925.3    0.00  1067.2 16890.7    0.00 16890.7 16869.6   21.07
   15 115    39       0   31662  310907       0  310907  309986   920.5    0.00  1067.3 16890.6    0.00 16890.6 16869.5   21.10
   15 116    40       0   31665  310899       0  310899  309984   915.1    0.00  1067.4 16890.5    0.00 16890.5 16869.4   21.12
   15 117    41       0   31680  310890       0  310890  309982   908.6    0.00  1068.0 16890.4    0.00 16890.4 16869.2   21.15
   15 118    42       0   31697  310879       0  310879  309979   900.4    0.00  1068.7 16890.2    0.00 16890.2 16869.0   21.19
   15 119    43       0   31697  310868       0  310868  309976   891.5    0.00  1068.7 16890.1    0.00 16890.1 16868.9   21.21
   15 120    44       0   31699  310857       0  310857  309974   883.2    0.00  1068.7 16889.9    0.00 16889.9 16868.7   21.23
   15 121    45       0   31758  310847       0  310847  309971   875.2    0.00  1071.0 16889.8    0.00 16889.8 16868.5   21.25
   15 122    46       0   31759  310839       0  310839  309969   870.2    0.00  1071.0 16889.6    0.00 16889.6 16868.4   21.26
   15 123    47       0   31773  310833       0  310833  309967   865.9    0.00  1071.6 16889.5    0.00 16889.5 16868.3   21.27
   15 124    48       0   31773  310826       0  310826  309965   860.8    0.00  1071.6 16889.4    0.00 16889.4 16868.1   21.27
   15 125    49       0   31776  310815       0  310815  309962   852.8    0.00  1071.7 16889.2    0.00 16889.2 16867.9   21.28
   15 126    50       0   31832  310801       0  310801  309958   843.1    0.00  1073.8 16889.0    0.00 16889.0 16867.7   21.29
   15 127    51       0   31832  310788       0  310788  309954   834.2    0.00  1073.8 16888.7    0.00 16888.7 16867.4   21.29
   15 128    52       0   31832  310773       0  310773  309949   823.5    0.00  1073.8 16888.4    0.00 16888.4 16867.1   21.28
   15 129    53       0   31832  310756       0  310756  309944   812.2    0.00  1073.8 16888.1    0.00 16888.1 16866.8   21.26
   15 130    54       0   31832  310742       0  310742  309940   802.0    0.00  1073.8 16887.8    0.00 16887.8 16866.5   21.24
   15 131    55       0   31832  310729       0  310729  309936   792.7    0.00  1073.8 16887.5    0.00 16887.5 16866.3   21.21
   15 132    56       0   31832  310715       0  310715  309932   783.5    0.00  1073.8 16887.2    0.00 16887.2 16866.0   21.18
   15 133    57       0   31832  310700       0  310700  309927   773.7    0.00  1073.8 16886.9    0.00 16886.9 16865.7   21.14
   15 134    58       0   31832  310685       0  310685  309922   763.1    0.00  1073.8 16886.5    0.00 16886.5 16865.4   21.09
   15 135    59       0   31832  310669       0  310669  309917   752.5    0.00  1073.8 16886.1    0.00 16886.1 16865.1   21.04
   15 136    60       0   31832  310655       0  310655  309912   742.9    0.00  1073.8 16885.8    0.00 16885.8 16864.8   20.98
   15 137    61       0   31832  310641       0  310641  309907   733.9    0.00  1073.8 16885.4    0.00 16885.4 16864.5   20.92
   15 138    62       0   31832  310627       0  310627  309902   725.5    0.00  1073.8 16885.1    0.00 16885.1 16864.2   20.86
   15 139    63       0   31832  310615       0  310615  309898   717.5    0.00  1073.8 16884.8    0.00 16884.8 16864.0   20.80
   15 140    64       0   31832  310603       0  310603  309893   709.8    0.00  1073.8 16884.5    0.00 16884.5 16863.7   20.73
   15 141    65       0   31831  310593       0  310593  309889   703.2    0.00  1073.7 16884.2    0.00 16884.2 16863.5   20.68
   15 142    66       0   31831  310582       0  310582  309886   696.7    0.00  1073.7 16883.9    0.00 16883.9 16863.3   20.62
   15 143    67       0   31831  310573       0  310573  309882   690.4    0.00  1073.7 16883.6    0.00 16883.6 16863.1   20.56
   15 144    68       0   31831  310565       0  310565  309880   685.1    0.00  1073.7 16883.4    0.00 16883.4 16862.9   20.51
   15 145    69       0   31831  310557       0  310557  309877   680.2    0.00  1073.7 16883.2    0.00 16883.2 16862.7   20.46
   15 146    70       0   31831  310548       0  310548  309874   674.1    0.00  1073.7 16882.9    0.00 16882.9 16862.5   20.40
   15 147    71       0   31831  310538       0  310538  309870   667.8    0.00  1073.7 16882.7    0.00 16882.7 16862.3   20.33
   15 148    72       0   31831  310528       0  310528  309866   661.8    0.00  1073.7 16882.4    0.00 16882.4 16862.1   20.27
   15 149    73       0   31831  310519       0  310519  309863   655.8    0.00  1073.7 16882.1    0.00 16882.1 16861.9   20.20
   15 150    74       0   31831  310508       0  310508  309859   649.2    0.00  1073.7 16881.8    0.00 16881.8 16861.7   20.12
   15 151    75       0   31831  310497       0  310497  309855   642.7    0.00  1073.7 16881.5    0.00 16881.5 16861.4   20.04
   15 152    76       0   31830  310486       0  310486  309850   635.9    0.00  1073.7 16881.1    0.00 16881.1 16861.2   19.95
   15 153    77       0   31830  310472       0  310472  309844   628.1    0.00  1073.7 16880.7    0.00 16880.7 16860.9   19.85
   15 154    78       0   31830  310458       0  310458  309838   619.6    0.00  1073.7 16880.2    0.00 16880.2 16860.5   19.74
   15 155    79       0   31829  310442       0  310442  309831   610.9    0.00  1073.7 16879.7    0.00 16879.7 16860.1   19.62
   15 156    80       0   31829  310425       0  310425  309823   602.2    0.00  1073.7 16879.2    0.00 16879.2 16859.7   19.49
   15 157    81       0   31829  310408       0  310408  309815   593.1    0.00  1073.6 16878.6    0.00 16878.6 16859.2   19.35
   15 158    82       0   31828  310389       0  310389  309806   582.9    0.00  1073.6 16877.9    0.00 16877.9 16858.7   19.19
   15 159    83       0   31828  310370       0  310370  309797   573.2    0.00  1073.6 16877.3    0.00 16877.3 16858.2   19.04
   15 160    84       0   31827  310350       0  310350  309789   561.9    0.00  1073.6 16876.6    0.00 16876.6 16857.7   18.85
   15 161    85       0   31827  310332       0  310332  309781   551.2    0.00  1073.6 16876.0    0.00 16876.0 16857.3   18.66
   15 162    86       0   31826  310316       0  310316  309774   541.6    0.00  1073.6 16875.4    0.00 16875.4 16856.9   18.49
   15 163    87       0   31826  310300       0  310300  309768   532.7    0.00  1073.6 16874.9    0.00 16874.9 16856.6   18.33
   15 164    88       0   31826  310286       0  310286  309761   524.5    0.00  1073.6 16874.4    0.00 16874.4 16856.2   18.17
   15 165    89       0   31826  310270       0  310270  309754   516.2    0.00  1073.5 16873.8    0.00 16873.8 16855.8   18.01
   15 166    90       0   31825  310254       0  310254  309746   508.1    0.00  1073.5 16873.2    0.00 16873.2 16855.4   17.85
   15 167    91       0   31824  310238       0  310238  309738   500.3    0.00  1073.5 16872.6    0.00 16872.6 16854.9   17.69
   15 168    92       0   31824  310222       0  310222  309730   491.9    0.00  1073.5 16872.0    0.00 16872.0 16854.5   17.52
   15 169    93       0   31823  310207       0  310207  309723   483.9    0.00  1073.5 16871.5    0.00 16871.5 16854.1   17.34
   15 170    94       0   31823  310195       0  310195  309717   477.7    0.00  1073.5 16871.0    0.00 16871.0 16853.8   17.21
   15 171    95       0   31823  310183       0  310183  309711   471.9    0.00  1073.5 16870.6    0.00 16870.6 16853.5   17.08
   15 172    96       0   31822  310172       0  310172  309706   466.3    0.00  1073.5 16870.2    0.00 16870.2 16853.2   16.95
   15 173    97       0   31822  310162       0  310162  309701   461.0    0.00  1073.4 16869.8    0.00 16869.8 16852.9   16.83
   15 174    98       0   31822  310152       0  310152  309696   456.1    0.00  1073.4 16869.4    0.00 16869.4 16852.6   16.72
   15 175    99       0   31821  310142       0  310142  309691   451.3    0.00  1073.4 16869.0    0.00 16869.0 16852.4   16.61
   15 176   100       0   31821  310132       0  310132  309685   446.1    0.00  1073.4 16868.6    0.00 16868.6 16852.1   16.48
   15 177   101       0   31821  310121       0  310121  309680   440.7    0.00  1073.4 16868.1    0.00 16868.1 16851.8   16.35
   15 178   102       0   31820  310109       0  310109  309674   435.3    0.00  1073.4 16867.7    0.00 16867.7 16851.4   16.22
   15 179   103       0   31820  310098       0  310098  309668   430.1    0.00  1073.4 16867.2    0.00 16867.2 16851.1   16.09
   15 180   104       0   31819  310086       0  310086  309661   424.9    0.00  1073.4 16866.7    0.00 16866.7 16850.7   15.96
   15 181   105       0   31819  310073       0  310073  309653   419.6    0.00  1073.4 16866.2    0.00 16866.2 16850.3   15.83
   15 182   106       0   31818  310059       0  310059  309645   414.2    0.00  1073.3 16865.6    0.00 16865.6 16849.9   15.69
   15 183   107       0   31817  310045       0  310045  309636   409.0    0.00  1073.3 16865.0    0.00 16865.0 16849.4   15.55
   15 184   108       0   31817  310031       0  310031  309627   404.0    0.00  1073.3 16864.3    0.00 16864.3 16848.9   15.42
   15 185   109       0   31816  310016       0  310016  309617   399.2    0.00  1073.3 16863.7    0.00 16863.7 16848.4   15.29
   15 186   110       0   31815  310001       0  310001  309606   394.6    0.00  1073.2 16863.0    0.00 16863.0 16847.8   15.17
   15 187   111       0   31814  309986       0  309986  309596   390.3    0.00  1073.2 16862.3    0.00 16862.3 16847.2   15.05
   15 188   112       0   31814  309971       0  309971  309585   386.3    0.00  1073.2 16861.6    0.00 16861.6 16846.6   14.94
   15 189   113       0   31813  309955       0  309955  309574   381.0    0.00  1073.2 16860.8    0.00 16860.8 16846.0   14.80
   15 190   114       0   31812  309938       0  309938  309563   374.8    0.00  1073.2 16860.1    0.00 16860.1 16845.4   14.64
   15 191   115       0   31812  309924       0  309924  309554   369.9    0.00  1073.1 16859.4    0.00 16859.4 16844.9   14.50
   15 192   116       0   31811  309912       0  309912  309546   366.0    0.00  1073.1 16858.9    0.00 16858.9 16844.5   14.40
   15 193   117       0   31811  309901       0  309901  309538   362.7    0.00  1073.1 16858.4    0.00 16858.4 16844.1   14.30
   15 194   118       0   31810  309892       0  309892  309532   360.1    0.00  1073.1 16857.9    0.00 16857.9 16843.7   14.23
   15 195   119       0   31810  309882       0  309882  309525   357.6    0.00  1073.1 16857.5    0.00 16857.5 16843.3   14.16
   15 196   120       0   31809  309872       0  309872  309517   354.9    0.00  1073.1 16857.0    0.00 16857.0 16842.9   14.08
   15 197   121       0   31809  309862       0  309862  309509   352.3    0.00  1073.0 16856.4    0.00 16856.4 16842.4   14.01
   15 198   122       0   31808  309851       0  309851  309501   349.8    0.00  1073.0 16855.9    0.00 16855.9 16841.9   13.94
   15 199   123       0   31808  309840       0  309840  309493   347.5    0.00  1073.0 16855.3    0.00 16855.3 16841.5   13.87
   15 200   124       0   31807  309829       0  309829  309484   345.4    0.00  1073.0 16854.8    0.00 16854.8 16841.0   13.81
   15 201   125       0   31807  309819       0  309819  309475   343.3    0.00  1073.0 16854.2    0.00 16854.2 16840.5   13.75
   15 202   126       0   31806  309808       0  309808  309467   341.5    0.00  1073.0 16853.6    0.00 16853.6 16839.9   13.69
   15 203   127       0   31806  309798       0  309798  309458   339.7    0.00  1072.9 16853.1    0.00 16853.1 16839.4   13.64
   15 204   128       0   31805  309787       0  309787  309449   338.2    0.00  1072.9 16852.5    0.00 16852.5 16838.9   13.59
   15 205   129       0   31805  309777       0  309777  309441   336.5    0.00  1072.9 16852.0    0.00 16852.0 16838.4   13.54
   15 206   130       0   31804  309768       0  309768  309433   335.0    0.00  1072.9 16851.4    0.00 16851.4 16837.9   13.50
   15 207   131       0   31804  309759       0  309759  309425   333.7    0.00  1072.9 16850.9    0.00 16850.9 16837.4   13.46
   15 208   132       0   31803  309751       0  309751  309418   332.7    0.00  1072.9 16850.5    0.00 16850.5 16837.0   13.43
   15 209   133       0   31803  309743       0  309743  309411   331.2    0.00  1072.9 16850.0    0.00 16850.0 16836.6   13.38
   15 210   134       0   31803  309735       0  309735  309405   329.7    0.00  1072.8 16849.6    0.00 16849.6 16836.3   13.34
   15 211   135       0   31802  309728       0  309728  309400   328.4    0.00  1072.8 16849.2    0.00 16849.2 16835.9   13.30
   15 212   136       0   31802  309722       0  309722  309395   327.2    0.00  1072.8 16848.9    0.00 16848.9 16835.6   13.27
   15 213   137       0   31802  309716       0  309716  309390   326.2    0.00  1072.8 16848.5    0.00 16848.5 16835.3   13.23
   15 214   138       0   31802  309710       0  309710  309385   325.4    0.00  1072.8 16848.2    0.00 16848.2 16835.0   13.21
   15 215   139       0   31801  309704       0  309704  309380   324.5    0.00  1072.8 16847.9    0.00 16847.9 16834.7   13.18
   15 216   140       0   31801  309698       0  309698  309374   323.7    0.00  1072.8 16847.5    0.00 16847.5 16834.3   13.16
   15 217   141       0   31801  309691       0  309691  309368   322.9    0.00  1072.8 16847.1    0.00 16847.1 16834.0   13.13
   15 218   142       0   31800  309684       0  309684  309362   322.2    0.00  1072.8 16846.7    0.00 16846.7 16833.6   13.11
   15 219   143       0   31800  309677       0  309677  309355   321.4    0.00  1072.8 16846.3    0.00 16846.3 16833.2   13.08
   15 220   144       0   31800  309669       0  309669  309349   320.7    0.00  1072.7 16845.8    0.00 16845.8 16832.7   13.06
   15 221   145       0   31799  309661       0  309661  309341   319.7    0.00  1072.7 16845.3    0.00 16845.3 16832.3   13.03
   15 222   146       0   31799  309653       0  309653  309334   318.9    0.00  1072.7 16844.8    0.00 16844.8 16831.8   13.00
   15 223   147       0   31798  309644       0  309644  309326   318.0    0.00  1072.7 16844.3    0.00 16844.3 16831.3   12.98
   15 224   148       0   31798  309636       0  309636  309318   317.3    0.00  1072.7 16843.8    0.00 16843.8 16830.8   12.95
   15 225   149       0   31798  309627       0  309627  309311   316.6    0.00  1072.7 16843.3    0.00 16843.3 16830.4   12.93
   15 226   150       0   31797  309619       0  309619  309303   316.0    0.00  1072.7 16842.8    0.00 16842.8 16829.9   12.91
   15 227   151       0   31797  309610       0  309610  309295   314.4    0.00  1072.6 16842.3    0.00 16842.3 16829.4   12.86
   15 228   152       0   31796  309601       0  309601  309288   313.0    0.00  1072.6 16841.8    0.00 16841.8 16828.9   12.81
   15 229   153       0   31796  309591       0  309591  309281   310.6    0.00  1072.6 16841.2    0.00 16841.2 16828.5   12.74
   15 230   154       0   31795  309583       0  309583  309274   308.3    0.00  1072.6 16840.8    0.00 16840.8 16828.1   12.67
   15 231   155       0   31795  309575       0  309575  309269   306.1    0.00  1072.6 16840.3    0.00 16840.3 16827.7   12.60
   15 232   156       0   31795  309568       0  309568  309263   304.4    0.00  1072.6 16840.0    0.00 16840.0 16827.4   12.54
   15 233   157       0   31794  309561       0  309561  309258   302.9    0.00  1072.6 16839.6    0.00 16839.6 16827.1   12.50
   15 234   158       0   31794  309555       0  309555  309253   301.6    0.00  1072.5 16839.3    0.00 16839.3 16826.8   12.45
   15 235   159       0   31794  309549       0  309549  309248   300.3    0.00  1072.5 16838.9    0.00 16838.9 16826.5   12.41
   15 236   160       0   31793  309542       0  309542  309243   298.8    0.00  1072.5 16838.5    0.00 16838.5 16826.2   12.36
   15 237   161       0   31792  309532       0  309532  309237   295.2    0.00  1072.5 16838.0    0.00 16838.0 16825.8   12.25

*DSSAT Cropping System Model Ver. 4.8.5.000 -release  FEB 02, 2026 11:46:55

*RUN   4        : 4                         WHAPS048 TUDU1501    4
 MODEL          : WHAPS048 - Wheat
 EXPERIMENT     : TUDU1501 WH
 DATA PATH      :
 TREATMENT  4   : 4                         WHAPS048
  
@YEAR DOY   DAS    OMAC    SCDD    SOCD    SC0D    SCTD   SOMCT    LCTD    ONAC    SNDD    SOND    SN0D    SNTD   SOMNT    LNTD
   15 076     0       0   31829  311106       0  311106  310026  1080.0    0.00  1073.9 16892.2    0.00 16892.2 16872.7   19.50
   15 077     1       0   31405  311093       0  311093  310024  1069.3    0.00  1057.6 16892.2    0.00 16892.2 16872.5   19.65
   15 078     2       0   31405  311083       0  311083  310022  1060.3    0.00  1057.6 16892.1    0.00 16892.1 16872.4   19.78
   15 079     3       0   31405  311074       0  311074  310021  1053.3    0.00  1057.6 16892.1    0.00 16892.1 16872.2   19.87
   15 080     4       0   31420  311068       0  311068  310020  1048.4    0.00  1058.2 16892.1    0.00 16892.1 16872.2   19.93
   15 081     5       0   31421  311065       0  311065  310019  1045.3    0.00  1058.2 16892.1    0.00 16892.1 16872.1   19.97
   15 082     6       0   31421  311064       0  311064  310019  1044.7    0.00  1058.2 16892.1    0.00 16892.1 16872.1   19.98
   15 083     7       0   31421  311064       0  311064  310019  1044.6    0.00  1058.2 16892.1    0.00 16892.1 16872.1   19.98
   15 084     8       0   31421  311064       0  311064  310019  1044.6    0.00  1058.2 16892.0    0.00 16892.0 16872.1   19.99
   15 085     9       0   31421  311063       0  311063  310019  1044.1    0.00  1058.2 16892.0    0.00 16892.0 16872.0   19.99
   15 086    10       0   31428  311062       0  311062  310019  1043.6    0.00  1058.5 16892.0    0.00 16892.0 16872.0   20.00
   15 087    11       0   31428  311060       0  311060  310018  1042.2    0.00  1058.5 16892.0    0.00 16892.0 16872.0   20.02
   15 088    12       0   31428  311057       0  311057  310017  1040.0    0.00  1058.5 16892.0    0.00 16892.0 16871.9   20.05
   15 089    13       0   31477  311054       0  311054  310017  1037.0    0.00  1060.3 16891.9    0.00 16891.9 16871.9   20.09
   15 090    14       0   31496  311050       0  311050  310016  1034.2    0.00  1061.0 16891.9    0.00 16891.9 16871.8   20.12
   15 091    15       0   31514  311046       0  311046  310016  1030.9    0.00  1061.7 16891.9    0.00 16891.9 16871.7   20.16
   15 092    16       0   31536  311044       0  311044  310015  1028.6    0.00  1062.6 16891.9    0.00 16891.9 16871.7   20.18
   15 093    17       0   31536  311042       0  311042  310015  1027.6    0.00  1062.6 16891.9    0.00 16891.9 16871.7   20.20
   15 094    18       0   31557  311042       0  311042  310015  1027.6    0.00  1063.4 16891.9    0.00 16891.9 16871.7   20.20
   15 095    19       0   31557  311042       0  311042  310015  1027.6    0.00  1063.4 16891.9    0.00 16891.9 16871.7   20.20
   15 096    20       0   31557  311042       0  311042  310015  1027.6    0.00  1063.4 16891.9    0.00 16891.9 16871.7   20.20
   15 097    21       0   31557  311042       0  311042  310015  1027.6    0.00  1063.4 16891.9    0.00 16891.9 16871.7   20.20
   15 098    22       0   31557  311042       0  311042  310015  1027.6    0.00  1063.4 16891.9    0.00 16891.9 16871.7   20.20
   15 099    23       0   31557  311042       0  311042  310015  1027.6    0.00  1063.4 16891.9    0.00 16891.9 16871.7   20.20
   15 100    24       0   31557  311042       0  311042  310015  1027.5    0.00  1063.4 16891.9    0.00 16891.9 16871.7   20.20
   15 101    25       0   31558  311039       0  311039  310014  1024.9    0.00  1063.4 16891.8    0.00 16891.8 16871.6   20.23
   15 102    26       0   31558  311032       0  311032  310013  1019.1    0.00  1063.4 16891.8    0.00 16891.8 16871.5   20.29
   15 103    27       0   31558  311022       0  311022  310011  1010.8    0.00  1063.4 16891.8    0.00 16891.8 16871.4   20.38
   15 104    28       0   31558  311010       0  311010  310009  1001.3    0.00  1063.4 16891.7    0.00 16891.7 16871.2   20.48
   15 105    29       0   31558  310998       0  310998  310007   991.8    0.00  1063.4 16891.6    0.00 16891.6 16871.0   20.58
   15 106    30       0   31559  310986       0  310986  310004   982.0    0.00  1063.4 16891.5    0.00 16891.5 16870.8   20.67
   15 107    31       0   31658  310973       0  310973  310001   972.0    0.00  1067.2 16891.3    0.00 16891.3 16870.6   20.76
   15 108    32       0   31658  310957       0  310957  309998   958.7    0.00  1067.2 16891.2    0.00 16891.2 16870.4   20.86
   15 109    33       0   31659  310943       0  310943  309996   946.8    0.00  1067.2 16891.1    0.00 16891.1 16870.2   20.93
   15 110    34       0   31659  310931       0  310931  309994   936.8    0.00  1067.2 16891.0    0.00 16891.0 16870.1   20.98
   15 111    35       0   31659  310923       0  310923  309993   929.6    0.00  1067.2 16891.0    0.00 16891.0 16870.0   21.01
   15 112    36       0   31660  310917       0  310917  309992   924.6    0.00  1067.2 16890.9    0.00 16890.9 16869.9   21.03
   15 113    37       0   31660  310911       0  310911  309991   919.8    0.00  1067.2 16890.8    0.00 16890.8 16869.8   21.05
   15 114    38       0   31660  310905       0  310905  309990   915.1    0.00  1067.2 16890.8    0.00 16890.8 16869.7   21.07
   15 115    39       0   31663  310898       0  310898  309988   909.7    0.00  1067.4 16890.7    0.00 16890.7 16869.6   21.10
   15 116    40       0   31666  310890       0  310890  309986   903.6    0.00  1067.5 16890.6    0.00 16890.6 16869.4   21.12
   15 117    41       0   31682  310881       0  310881  309984   896.4    0.00  1068.1 16890.4    0.00 16890.4 16869.3   21.15
   15 118    42       0   31698  310869       0  310869  309982   887.2    0.00  1068.7 16890.3    0.00 16890.3 16869.1   21.17
   15 119    43       0   31698  310856       0  310856  309979   877.0    0.00  1068.7 16890.1    0.00 16890.1 16868.9   21.19
   15 120    44       0   31701  310844       0  310844  309977   867.3    0.00  1068.8 16890.0    0.00 16890.0 16868.8   21.20
   15 121    45       0   31760  310833       0  310833  309975   858.0    0.00  1071.0 16889.8    0.00 16889.8 16868.6   21.20
   15 122    46       0   31761  310825       0  310825  309973   852.1    0.00  1071.1 16889.7    0.00 16889.7 16868.5   21.21
   15 123    47       0   31775  310818       0  310818  309971   847.1    0.00  1071.6 16889.6    0.00 16889.6 16868.4   21.21
   15 124    48       0   31775  310811       0  310811  309969   841.3    0.00  1071.6 16889.4    0.00 16889.4 16868.2   21.21
   15 125    49       0   31779  310799       0  310799  309966   832.2    0.00  1071.8 16889.2    0.00 16889.2 16868.0   21.20
   15 126    50       0   31835  310784       0  310784  309963   821.1    0.00  1073.9 16889.0    0.00 16889.0 16867.8   21.19
   15 127    51       0   31835  310770       0  310770  309958   811.2    0.00  1073.9 16888.7    0.00 16888.7 16867.5   21.18
   15 128    52       0   31835  310754       0  310754  309954   799.5    0.00  1073.9 16888.4    0.00 16888.4 16867.2   21.15
   15 129    53       0   31835  310737       0  310737  309949   787.5    0.00  1073.9 16888.1    0.00 16888.1 16866.9   21.12
   15 130    54       0   31835  310722       0  310722  309945   776.9    0.00  1073.9 16887.7    0.00 16887.7 16866.7   21.09
   15 131    55       0   31835  310709       0  310709  309941   768.0    0.00  1073.9 16887.5    0.00 16887.5 16866.4   21.05
   15 132    56       0   31835  310696       0  310696  309937   759.3    0.00  1073.9 16887.2    0.00 16887.2 16866.1   21.01
   15 133    57       0   31835  310682       0  310682  309932   750.4    0.00  1073.9 16886.8    0.00 16886.8 16865.9   20.97
   15 134    58       0   31834  310667       0  310667  309926   740.9    0.00  1073.9 16886.5    0.00 16886.5 16865.5   20.92
   15 135    59       0   31834  310653       0  310653  309921   731.8    0.00  1073.8 16886.1    0.00 16886.1 16865.2   20.86
   15 136    60       0   31834  310639       0  310639  309916   723.4    0.00  1073.8 16885.7    0.00 16885.7 16864.9   20.81
   15 137    61       0   31834  310626       0  310626  309910   715.4    0.00  1073.8 16885.4    0.00 16885.4 16864.6   20.75
   15 138    62       0   31834  310614       0  310614  309906   708.3    0.00  1073.8 16885.0    0.00 16885.0 16864.3   20.69
   15 139    63       0   31833  310603       0  310603  309901   701.8    0.00  1073.8 16884.7    0.00 16884.7 16864.1   20.64
   15 140    64       0   31833  310591       0  310591  309897   694.3    0.00  1073.8 16884.4    0.00 16884.4 16863.8   20.57
   15 141    65       0   31833  310581       0  310581  309893   688.0    0.00  1073.8 16884.1    0.00 16884.1 16863.6   20.52
   15 142    66       0   31833  310571       0  310571  309889   681.7    0.00  1073.8 16883.8    0.00 16883.8 16863.4   20.46
   15 143    67       0   31833  310561       0  310561  309886   675.6    0.00  1073.8 16883.6    0.00 16883.6 16863.2   20.39
   15 144    68       0   31833  310553       0  310553  309883   670.6    0.00  1073.8 16883.3    0.00 16883.3 16863.0   20.34
   15 145    69       0   31833  310546       0  310546  309880   665.9    0.00  1073.8 16883.1    0.00 16883.1 16862.8   20.29
   15 146    70       0   31833  310537       0  310537  309877   660.3    0.00  1073.8 16882.9    0.00 16882.9 16862.6   20.23
   15 147    71       0   31832  310527       0  310527  309873   654.5    0.00  1073.8 16882.6    0.00 16882.6 16862.4   20.16
   15 148    72       0   31832  310518       0  310518  309869   648.8    0.00  1073.8 16882.3    0.00 16882.3 16862.2   20.09
   15 149    73       0   31832  310509       0  310509  309866   643.1    0.00  1073.8 16882.0    0.00 16882.0 16862.0   20.03
   15 150    74       0   31832  310498       0  310498  309861   637.0    0.00  1073.8 16881.7    0.00 16881.7 16861.8   19.95
   15 151    75       0   31832  310488       0  310488  309857   630.9    0.00  1073.8 16881.4    0.00 16881.4 16861.5   19.87
   15 152    76       0   31832  310477       0  310477  309853   624.3    0.00  1073.7 16881.0    0.00 16881.0 16861.3   19.78
   15 153    77       0   31831  310463       0  310463  309847   615.8    0.00  1073.7 16880.6    0.00 16880.6 16860.9   19.67
   15 154    78       0   31831  310447       0  310447  309840   606.7    0.00  1073.7 16880.1    0.00 16880.1 16860.6   19.54
   15 155    79       0   31831  310431       0  310431  309833   597.4    0.00  1073.7 16879.6    0.00 16879.6 16860.2   19.41
   15 156    80       0   31830  310414       0  310414  309826   588.5    0.00  1073.7 16879.0    0.00 16879.0 16859.8   19.28
   15 157    81       0   31830  310397       0  310397  309817   579.7    0.00  1073.7 16878.4    0.00 16878.4 16859.3   19.14
   15 158    82       0   31829  310379       0  310379  309808   570.1    0.00  1073.7 16877.8    0.00 16877.8 16858.8   18.99
   15 159    83       0   31829  310361       0  310361  309800   561.4    0.00  1073.6 16877.1    0.00 16877.1 16858.3   18.85
   15 160    84       0   31828  310342       0  310342  309791   550.2    0.00  1073.6 16876.5    0.00 16876.5 16857.8   18.65
   15 161    85       0   31828  310324       0  310324  309784   539.7    0.00  1073.6 16875.9    0.00 16875.9 16857.4   18.46
   15 162    86       0   31828  310308       0  310308  309777   530.6    0.00  1073.6 16875.3    0.00 16875.3 16857.0   18.29
   15 163    87       0   31827  310293       0  310293  309771   522.4    0.00  1073.6 16874.8    0.00 16874.8 16856.7   18.13
   15 164    88       0   31827  310279       0  310279  309764   514.8    0.00  1073.6 16874.3    0.00 16874.3 16856.3   17.98
   15 165    89       0   31827  310265       0  310265  309758   507.1    0.00  1073.6 16873.8    0.00 16873.8 16856.0   17.82
   15 166    90       0   31826  310249       0  310249  309750   499.4    0.00  1073.6 16873.2    0.00 16873.2 16855.5   17.66
   15 167    91       0   31825  310234       0  310234  309742   491.9    0.00  1073.6 16872.6    0.00 16872.6 16855.1   17.51
   15 168    92       0   31825  310218       0  310218  309734   483.7    0.00  1073.5 16872.0    0.00 16872.0 16854.7   17.33
   15 169    93       0   31825  310203       0  310203  309727   476.0    0.00  1073.5 16871.4    0.00 16871.4 16854.3   17.16
   15 170    94       0   31824  310190       0  310190  309721   469.9    0.00  1073.5 16871.0    0.00 16871.0 16853.9   17.03
   15 171    95       0   31824  310179       0  310179  309715   464.2    0.00  1073.5 16870.5    0.00 16870.5 16853.6   16.90
   15 172    96       0   31823  310169       0  310169  309710   458.8    0.00  1073.5 16870.1    0.00 16870.1 16853.3   16.78
   15 173    97       0   31823  310158       0  310158  309705   453.6    0.00  1073.5 16869.7    0.00 16869.7 16853.1   16.65
   15 174    98       0   31823  310148       0  310148  309700   449.0    0.00  1073.5 16869.3    0.00 16869.3 16852.8   16.54
   15 175    99       0   31822  310139       0  310139  309694   444.3    0.00  1073.5 16868.9    0.00 16868.9 16852.5   16.43
   15 176   100       0   31822  310128       0  310128  309689   439.2    0.00  1073.5 16868.5    0.00 16868.5 16852.2   16.31
   15 177   101       0   31822  310117       0  310117  309683   433.9    0.00  1073.4 16868.1    0.00 16868.1 16851.9   16.18
   15 178   102       0   31821  310106       0  310106  309677   428.7    0.00  1073.4 16867.6    0.00 16867.6 16851.6   16.05
   15 179   103       0   31821  310095       0  310095  309671   423.6    0.00  1073.4 16867.2    0.00 16867.2 16851.2   15.93
   15 180   104       0   31820  310083       0  310083  309664   418.5    0.00  1073.4 16866.7    0.00 16866.7 16850.9   15.79
   15 181   105       0   31820  310070       0  310070  309657   413.2    0.00  1073.4 16866.1    0.00 16866.1 16850.5   15.66
   15 182   106       0   31819  310056       0  310056  309648   408.0    0.00  1073.4 16865.5    0.00 16865.5 16850.0   15.53
   15 183   107       0   31818  310042       0  310042  309639   403.1    0.00  1073.3 16864.9    0.00 16864.9 16849.5   15.40
   15 184   108       0   31818  310029       0  310029  309630   398.6    0.00  1073.3 16864.3    0.00 16864.3 16849.0   15.28
   15 185   109       0   31817  310016       0  310016  309621   394.3    0.00  1073.3 16863.7    0.00 16863.7 16848.5   15.17
   15 186   110       0   31816  310002       0  310002  309612   390.4    0.00  1073.3 16863.1    0.00 16863.1 16848.0   15.06
   15 187   111       0   31816  309989       0  309989  309602   386.7    0.00  1073.3 16862.4    0.00 16862.4 16847.5   14.97
   15 188   112       0   31815  309977       0  309977  309593   383.5    0.00  1073.2 16861.8    0.00 16861.8 16846.9   14.88
   15 189   113       0   31814  309963       0  309963  309584   379.3    0.00  1073.2 16861.2    0.00 16861.2 16846.4   14.77
   15 190   114       0   31814  309949       0  309949  309575   374.2    0.00  1073.2 16860.5    0.00 16860.5 16845.9   14.63
   15 191   115       0   31813  309938       0  309938  309568   370.0    0.00  1073.2 16860.0    0.00 16860.0 16845.5   14.51
   15 192   116       0   31812  309928       0  309928  309561   366.8    0.00  1073.2 16859.5    0.00 16859.5 16845.1   14.42
   15 193   117       0   31812  309919       0  309919  309555   364.3    0.00  1073.1 16859.1    0.00 16859.1 16844.7   14.35
   15 194   118       0   31812  309912       0  309912  309549   362.5    0.00  1073.1 16858.7    0.00 16858.7 16844.4   14.30
   15 195   119       0   31811  309905       0  309905  309544   360.7    0.00  1073.1 16858.3    0.00 16858.3 16844.1   14.25
   15 196   120       0   31811  309897       0  309897  309538   359.0    0.00  1073.1 16857.9    0.00 16857.9 16843.7   14.20
   15 197   121       0   31810  309890       0  309890  309532   357.3    0.00  1073.1 16857.5    0.00 16857.5 16843.4   14.15
   15 198   122       0   31810  309882       0  309882  309526   355.8    0.00  1073.1 16857.1    0.00 16857.1 16843.0   14.11
   15 199   123       0   31809  309875       0  309875  309520   354.5    0.00  1073.1 16856.7    0.00 16856.7 16842.6   14.07
   15 200   124       0   31809  309868       0  309868  309514   353.4    0.00  1073.0 16856.3    0.00 16856.3 16842.2   14.04
[...]
   15 082     6       0   31421  311064       0  311064  310019  1044.7    0.00  1058.2 16892.1    0.00 16892.1 16872.1   19.98
   15 083     7       0   31421  311064       0  311064  310019  1044.6    0.00  1058.2 16892.1    0.00 16892.1 16872.1   19.98
   15 084     8       0   31421  311064       0  311064  310019  1044.6    0.00  1058.2 16892.0    0.00 16892.0 16872.1   19.99
   15 085     9       0   31421  311063       0  311063  310019  1044.1    0.00  1058.2 16892.0    0.00 16892.0 16872.0   19.99
   15 086    10       0   31428  311062       0  311062  310019  1043.6    0.00  1058.5 16892.0    0.00 16892.0 16872.0   20.00
   15 087    11       0   31428  311060       0  311060  310018  1042.2    0.00  1058.5 16892.0    0.00 16892.0 16872.0   20.02
   15 088    12       0   31428  311057       0  311057  310017  1040.0    0.00  1058.5 16892.0    0.00 16892.0 16871.9   20.05
   15 089    13       0   31477  311054       0  311054  310017  1037.0    0.00  1060.3 16891.9    0.00 16891.9 16871.9   20.09
   15 090    14       0   31496  311050       0  311050  310016  1034.2    0.00  1061.0 16891.9    0.00 16891.9 16871.8   20.12
   15 091    15       0   31514  311046       0  311046  310016  1030.9    0.00  1061.7 16891.9    0.00 16891.9 16871.7   20.16
   15 092    16       0   31536  311044       0  311044  310015  1028.6    0.00  1062.6 16891.9    0.00 16891.9 16871.7   20.18
   15 093    17       0   31536  311042       0  311042  310015  1027.6    0.00  1062.6 16891.9    0.00 16891.9 16871.7   20.20
   15 094    18       0   31557  311042       0  311042  310015  1027.6    0.00  1063.4 16891.9    0.00 16891.9 16871.7   20.20
   15 095    19       0   31557  311042       0  311042  310015  1027.6    0.00  1063.4 16891.9    0.00 16891.9 16871.7   20.20
   15 096    20       0   31557  311042       0  311042  310015  1027.6    0.00  1063.4 16891.9    0.00 16891.9 16871.7   20.20
   15 097    21       0   31557  311042       0  311042  310015  1027.6    0.00  1063.4 16891.9    0.00 16891.9 16871.7   20.20
   15 098    22       0   31557  311042       0  311042  310015  1027.6    0.00  1063.4 16891.9    0.00 16891.9 16871.7   20.20
   15 099    23       0   31557  311042       0  311042  310015  1027.6    0.00  1063.4 16891.9    0.00 16891.9 16871.7   20.20
   15 100    24       0   31557  311042       0  311042  310015  1027.5    0.00  1063.4 16891.9    0.00 16891.9 16871.7   20.20
   15 101    25       0   31558  311039       0  311039  310014  1025.0    0.00  1063.4 16891.8    0.00 16891.8 16871.6   20.23
   15 102    26       0   31558  311032       0  311032  310013  1019.4    0.00  1063.4 16891.8    0.00 16891.8 16871.5   20.29
   15 103    27       0   31558  311022       0  311022  310011  1011.3    0.00  1063.4 16891.8    0.00 16891.8 16871.4   20.38
   15 104    28       0   31558  311011       0  311011  310009  1002.1    0.00  1063.4 16891.7    0.00 16891.7 16871.2   20.48
   15 105    29       0   31558  310999       0  310999  310006   993.0    0.00  1063.4 16891.6    0.00 16891.6 16871.0   20.57
   15 106    30       0   31558  310987       0  310987  310003   983.5    0.00  1063.4 16891.5    0.00 16891.5 16870.8   20.67
   15 107    31       0   31658  310974       0  310974  310000   973.6    0.00  1067.2 16891.3    0.00 16891.3 16870.6   20.76
   15 108    32       0   31658  310960       0  310960  309997   962.3    0.00  1067.2 16891.2    0.00 16891.2 16870.4   20.85
   15 109    33       0   31658  310947       0  310947  309995   952.2    0.00  1067.2 16891.1    0.00 16891.1 16870.2   20.92
   15 110    34       0   31658  310937       0  310937  309993   943.9    0.00  1067.2 16891.0    0.00 16891.0 16870.0   20.97
   15 111    35       0   31659  310929       0  310929  309992   937.8    0.00  1067.2 16890.9    0.00 16890.9 16869.9   21.00
   15 112    36       0   31659  310924       0  310924  309990   933.5    0.00  1067.2 16890.8    0.00 16890.8 16869.8   21.03
   15 113    37       0   31659  310918       0  310918  309989   929.4    0.00  1067.2 16890.8    0.00 16890.8 16869.7   21.05
   15 114    38       0   31659  310913       0  310913  309988   925.3    0.00  1067.2 16890.7    0.00 16890.7 16869.6   21.07
   15 115    39       0   31662  310907       0  310907  309986   920.5    0.00  1067.3 16890.6    0.00 16890.6 16869.5   21.10
   15 116    40       0   31665  310899       0  310899  309984   915.1    0.00  1067.4 16890.5    0.00 16890.5 16869.4   21.12
   15 117    41       0   31680  310890       0  310890  309982   908.6    0.00  1068.0 16890.4    0.00 16890.4 16869.2   21.15
   15 118    42       0   31697  310879       0  310879  309979   900.4    0.00  1068.7 16890.2    0.00 16890.2 16869.0   21.19
   15 119    43       0   31697  310868       0  310868  309976   891.5    0.00  1068.7 16890.1    0.00 16890.1 16868.9   21.21
   15 120    44       0   31699  310857       0  310857  309974   883.2    0.00  1068.7 16889.9    0.00 16889.9 16868.7   21.23
   15 121    45       0   31758  310847       0  310847  309971   875.2    0.00  1071.0 16889.8    0.00 16889.8 16868.5   21.25
   15 122    46       0   31759  310839       0  310839  309969   870.2    0.00  1071.0 16889.6    0.00 16889.6 16868.4   21.26
   15 123    47       0   31773  310833       0  310833  309967   865.9    0.00  1071.6 16889.5    0.00 16889.5 16868.3   21.27
   15 124    48       0   31773  310826       0  310826  309965   860.8    0.00  1071.6 16889.4    0.00 16889.4 16868.1   21.27
   15 125    49       0   31776  310815       0  310815  309962   852.8    0.00  1071.7 16889.2    0.00 16889.2 16867.9   21.28
   15 126    50       0   31832  310801       0  310801  309958   843.1    0.00  1073.8 16889.0    0.00 16889.0 16867.7   21.29
   15 127    51       0   31832  310788       0  310788  309954   834.2    0.00  1073.8 16888.7    0.00 16888.7 16867.4   21.29
   15 128    52       0   31832  310773       0  310773  309949   823.5    0.00  1073.8 16888.4    0.00 16888.4 16867.1   21.28
   15 129    53       0   31832  310756       0  310756  309944   812.2    0.00  1073.8 16888.1    0.00 16888.1 16866.8   21.26
   15 130    54       0   31832  310742       0  310742  309940   802.0    0.00  1073.8 16887.8    0.00 16887.8 16866.5   21.24
   15 131    55       0   31832  310729       0  310729  309936   792.7    0.00  1073.8 16887.5    0.00 16887.5 16866.3   21.21
   15 132    56       0   31832  310715       0  310715  309932   783.5    0.00  1073.8 16887.2    0.00 16887.2 16866.0   21.18
   15 133    57       0   31832  310700       0  310700  309927   773.7    0.00  1073.8 16886.9    0.00 16886.9 16865.7   21.14
   15 134    58       0   31832  310685       0  310685  309922   763.1    0.00  1073.8 16886.5    0.00 16886.5 16865.4   21.09
   15 135    59       0   31832  310669       0  310669  309917   752.5    0.00  1073.8 16886.1    0.00 16886.1 16865.1   21.04
   15 136    60       0   31832  310655       0  310655  309912   742.9    0.00  1073.8 16885.8    0.00 16885.8 16864.8   20.98
   15 137    61       0   31832  310641       0  310641  309907   733.9    0.00  1073.8 16885.4    0.00 16885.4 16864.5   20.92
   15 138    62       0   31832  310627       0  310627  309902   725.5    0.00  1073.8 16885.1    0.00 16885.1 16864.2   20.86
   15 139    63       0   31832  310615       0  310615  309898   717.5    0.00  1073.8 16884.8    0.00 16884.8 16864.0   20.80
   15 140    64       0   31832  310603       0  310603  309893   709.8    0.00  1073.8 16884.5    0.00 16884.5 16863.7   20.73
   15 141    65       0   31831  310593       0  310593  309889   703.2    0.00  1073.7 16884.2    0.00 16884.2 16863.5   20.68
   15 142    66       0   31831  310582       0  310582  309886   696.7    0.00  1073.7 16883.9    0.00 16883.9 16863.3   20.62
   15 143    67       0   31831  310573       0  310573  309882   690.4    0.00  1073.7 16883.6    0.00 16883.6 16863.1   20.56
   15 144    68       0   31831  310565       0  310565  309880   685.1    0.00  1073.7 16883.4    0.00 16883.4 16862.9   20.51
   15 145    69       0   31831  310557       0  310557  309877   680.2    0.00  1073.7 16883.2    0.00 16883.2 16862.7   20.46
   15 146    70       0   31831  310548       0  310548  309874   674.1    0.00  1073.7 16882.9    0.00 16882.9 16862.5   20.40
   15 147    71       0   31831  310538       0  310538  309870   667.8    0.00  1073.7 16882.7    0.00 16882.7 16862.3   20.33
   15 148    72       0   31831  310528       0  310528  309866   661.8    0.00  1073.7 16882.4    0.00 16882.4 16862.1   20.27
   15 149    73       0   31831  310519       0  310519  309863   655.8    0.00  1073.7 16882.1    0.00 16882.1 16861.9   20.20
   15 150    74       0   31831  310508       0  310508  309859   649.2    0.00  1073.7 16881.8    0.00 16881.8 16861.7   20.12
   15 151    75       0   31831  310497       0  310497  309855   642.7    0.00  1073.7 16881.5    0.00 16881.5 16861.4   20.04
   15 152    76       0   31830  310486       0  310486  309850   635.9    0.00  1073.7 16881.1    0.00 16881.1 16861.2   19.95
   15 153    77       0   31830  310472       0  310472  309844   628.1    0.00  1073.7 16880.7    0.00 16880.7 16860.9   19.85
   15 154    78       0   31830  310458       0  310458  309838   619.6    0.00  1073.7 16880.2    0.00 16880.2 16860.5   19.74
   15 155    79       0   31829  310442       0  310442  309831   610.9    0.00  1073.7 16879.7    0.00 16879.7 16860.1   19.62
   15 156    80       0   31829  310425       0  310425  309823   602.2    0.00  1073.7 16879.2    0.00 16879.2 16859.7   19.49
   15 157    81       0   31829  310408       0  310408  309815   593.1    0.00  1073.6 16878.6    0.00 16878.6 16859.2   19.35
   15 158    82       0   31828  310389       0  310389  309806   582.9    0.00  1073.6 16877.9    0.00 16877.9 16858.7   19.19
   15 159    83       0   31828  310370       0  310370  309797   573.2    0.00  1073.6 16877.3    0.00 16877.3 16858.2   19.04
   15 160    84       0   31827  310350       0  310350  309789   561.9    0.00  1073.6 16876.6    0.00 16876.6 16857.7   18.85
   15 161    85       0   31827  310332       0  310332  309781   551.2    0.00  1073.6 16876.0    0.00 16876.0 16857.3   18.66
   15 162    86       0   31826  310316       0  310316  309774   541.6    0.00  1073.6 16875.4    0.00 16875.4 16856.9   18.49
   15 163    87       0   31826  310300       0  310300  309768   532.7    0.00  1073.6 16874.9    0.00 16874.9 16856.6   18.33
   15 164    88       0   31826  310286       0  310286  309761   524.5    0.00  1073.6 16874.4    0.00 16874.4 16856.2   18.17
   15 165    89       0   31826  310270       0  310270  309754   516.2    0.00  1073.5 16873.8    0.00 16873.8 16855.8   18.01
   15 166    90       0   31825  310254       0  310254  309746   508.1    0.00  1073.5 16873.2    0.00 16873.2 16855.4   17.85
   15 167    91       0   31824  310238       0  310238  309738   500.3    0.00  1073.5 16872.6    0.00 16872.6 16854.9   17.69
   15 168    92       0   31824  310222       0  310222  309730   491.9    0.00  1073.5 16872.0    0.00 16872.0 16854.5   17.52
   15 169    93       0   31823  310207       0  310207  309723   483.9    0.00  1073.5 16871.5    0.00 16871.5 16854.1   17.34
   15 170    94       0   31823  310195       0  310195  309717   477.7    0.00  1073.5 16871.0    0.00 16871.0 16853.8   17.21
   15 171    95       0   31823  310183       0  310183  309711   471.9    0.00  1073.5 16870.6    0.00 16870.6 16853.5   17.08
   15 172    96       0   31822  310172       0  310172  309706   466.3    0.00  1073.5 16870.2    0.00 16870.2 16853.2   16.95
   15 173    97       0   31822  310162       0  310162  309701   461.0    0.00  1073.4 16869.8    0.00 16869.8 16852.9   16.83
   15 174    98       0   31822  310152       0  310152  309696   456.1    0.00  1073.4 16869.4    0.00 16869.4 16852.6   16.72
   15 175    99       0   31821  310142       0  310142  309691   451.3    0.00  1073.4 16869.0    0.00 16869.0 16852.4   16.61
   15 176   100       0   31821  310132       0  310132  309685   446.1    0.00  1073.4 16868.6    0.00 16868.6 16852.1   16.48
   15 177   101       0   31821  310121       0  310121  309680   440.7    0.00  1073.4 16868.1    0.00 16868.1 16851.8   16.35
   15 178   102       0   31820  310109       0  310109  309674   435.3    0.00  1073.4 16867.7    0.00 16867.7 16851.4   16.22
   15 179   103       0   31820  310098       0  310098  309668   430.1    0.00  1073.4 16867.2    0.00 16867.2 16851.1   16.09
   15 180   104       0   31819  310086       0  310086  309661   424.9    0.00  1073.4 16866.7    0.00 16866.7 16850.7   15.96
   15 181   105       0   31819  310073       0  310073  309653   419.6    0.00  1073.4 16866.2    0.00 16866.2 16850.3   15.83
   15 182   106       0   31818  310059       0  310059  309645   414.2    0.00  1073.3 16865.6    0.00 16865.6 16849.9   15.69
   15 183   107       0   31817  310045       0  310045  309636   409.0    0.00  1073.3 16865.0    0.00 16865.0 16849.4   15.55
   15 184   108       0   31817  310031       0  310031  309627   404.0    0.00  1073.3 16864.3    0.00 16864.3 16848.9   15.42
   15 185   109       0   31816  310016       0  310016  309617   399.3    0.00  1073.3 16863.7    0.00 16863.7 16848.4   15.29
   15 186   110       0   31815  310001       0  310001  309606   394.6    0.00  1073.2 16863.0    0.00 16863.0 16847.8   15.17
   15 187   111       0   31814  309986       0  309986  309596   390.3    0.00  1073.2 16862.3    0.00 16862.3 16847.2   15.05
   15 188   112       0   31814  309971       0  309971  309585   386.3    0.00  1073.2 16861.6    0.00 16861.6 16846.6   14.94
   15 189   113       0   31813  309955       0  309955  309574   381.1    0.00  1073.2 16860.8    0.00 16860.8 16846.0   14.80
   15 190   114       0   31812  309938       0  309938  309563   374.9    0.00  1073.2 16860.1    0.00 16860.1 16845.4   14.64
   15 191   115       0   31812  309924       0  309924  309554   369.9    0.00  1073.1 16859.4    0.00 16859.4 16844.9   14.50
   15 192   116       0   31811  309912       0  309912  309546   366.0    0.00  1073.1 16858.9    0.00 16858.9 16844.5   14.40
   15 193   117       0   31811  309901       0  309901  309538   362.7    0.00  1073.1 16858.4    0.00 16858.4 16844.1   14.31
   15 194   118       0   31810  309892       0  309892  309532   360.1    0.00  1073.1 16857.9    0.00 16857.9 16843.7   14.23
   15 195   119       0   31810  309882       0  309882  309525   357.6    0.00  1073.1 16857.5    0.00 16857.5 16843.3   14.16
   15 196   120       0   31809  309872       0  309872  309517   355.0    0.00  1073.1 16857.0    0.00 16857.0 16842.9   14.08
   15 197   121       0   31809  309862       0  309862  309509   352.3    0.00  1073.0 16856.4    0.00 16856.4 16842.4   14.01
   15 198   122       0   31808  309851       0  309851  309501   349.8    0.00  1073.0 16855.9    0.00 16855.9 16841.9   13.94
   15 199   123       0   31808  309840       0  309840  309493   347.5    0.00  1073.0 16855.3    0.00 16855.3 16841.5   13.87
   15 200   124       0   31807  309829       0  309829  309484   345.3    0.00  1073.0 16854.8    0.00 16854.8 16841.0   13.81
   15 201   125       0   31807  309818       0  309818  309475   343.3    0.00  1073.0 16854.2    0.00 16854.2 16840.4   13.75
   15 202   126       0   31806  309808       0  309808  309466   341.4    0.00  1073.0 16853.6    0.00 16853.6 16839.9   13.69
   15 203   127       0   31806  309797       0  309797  309458   339.6    0.00  1072.9 16853.1    0.00 16853.1 16839.4   13.64
   15 204   128       0   31805  309787       0  309787  309449   338.1    0.00  1072.9 16852.5    0.00 16852.5 16838.9   13.59
   15 205   129       0   31805  309777       0  309777  309441   336.4    0.00  1072.9 16851.9    0.00 16851.9 16838.4   13.54
   15 206   130       0   31804  309767       0  309767  309432   334.9    0.00  1072.9 16851.4    0.00 16851.4 16837.9   13.49
   15 207   131       0   31804  309758       0  309758  309425   333.6    0.00  1072.9 16850.9    0.00 16850.9 16837.4   13.45
   15 208   132       0   31803  309750       0  309750  309418   332.5    0.00  1072.9 16850.4    0.00 16850.4 16837.0   13.42
   15 209   133       0   31803  309742       0  309742  309411   331.0    0.00  1072.9 16850.0    0.00 16850.0 16836.6   13.38
   15 210   134       0   31803  309735       0  309735  309405   329.5    0.00  1072.8 16849.6    0.00 16849.6 16836.2   13.33
   15 211   135       0   31802  309728       0  309728  309399   328.1    0.00  1072.8 16849.2    0.00 16849.2 16835.9   13.29
   15 212   136       0   31802  309721       0  309721  309394   327.0    0.00  1072.8 16848.9    0.00 16848.9 16835.6   13.26
   15 213   137       0   31802  309715       0  309715  309389   326.0    0.00  1072.8 16848.5    0.00 16848.5 16835.3   13.23
   15 214   138       0   31802  309709       0  309709  309384   325.1    0.00  1072.8 16848.2    0.00 16848.2 16835.0   13.20
   15 215   139       0   31801  309703       0  309703  309379   324.3    0.00  1072.8 16847.8    0.00 16847.8 16834.7   13.17
   15 216   140       0   31801  309697       0  309697  309374   323.4    0.00  1072.8 16847.5    0.00 16847.5 16834.3   13.15
   15 217   141       0   31801  309690       0  309690  309368   322.6    0.00  1072.8 16847.1    0.00 16847.1 16834.0   13.12
   15 218   142       0   31800  309683       0  309683  309362   321.9    0.00  1072.8 16846.7    0.00 16846.7 16833.6   13.10
   15 219   143       0   31800  309676       0  309676  309355   321.1    0.00  1072.8 16846.2    0.00 16846.2 16833.1   13.07
   15 220   144       0   31800  309668       0  309668  309348   320.4    0.00  1072.7 16845.8    0.00 16845.8 16832.7   13.05
   15 221   145       0   31799  309660       0  309660  309341   319.4    0.00  1072.7 16845.3    0.00 16845.3 16832.2   13.02
   15 222   146       0   31799  309651       0  309651  309333   318.5    0.00  1072.7 16844.8    0.00 16844.8 16831.8   12.99
   15 223   147       0   31798  309643       0  309643  309325   317.7    0.00  1072.7 16844.3    0.00 16844.3 16831.3   12.97
   15 224   148       0   31798  309634       0  309634  309318   316.9    0.00  1072.7 16843.7    0.00 16843.7 16830.8   12.94
   15 225   149       0   31798  309626       0  309626  309310   316.2    0.00  1072.7 16843.2    0.00 16843.2 16830.3   12.92
   15 226   150       0   31797  309618       0  309618  309302   315.6    0.00  1072.7 16842.8    0.00 16842.8 16829.9   12.90
   15 227   151       0   31797  309608       0  309608  309294   314.0    0.00  1072.6 16842.2    0.00 16842.2 16829.4   12.85
   15 228   152       0   31796  309599       0  309599  309287   312.6    0.00  1072.6 16841.7    0.00 16841.7 16828.9   12.80
   15 229   153       0   31796  309590       0  309590  309280   310.2    0.00  1072.6 16841.2    0.00 16841.2 16828.5   12.73
   15 230   154       0   31795  309581       0  309581  309273   307.9    0.00  1072.6 16840.7    0.00 16840.7 16828.1   12.66
   15 231   155       0   31795  309573       0  309573  309267   305.7    0.00  1072.6 16840.3    0.00 16840.3 16827.7   12.59
   15 232   156       0   31795  309566       0  309566  309262   303.9    0.00  1072.6 16839.9    0.00 16839.9 16827.4   12.53
   15 233   157       0   31794  309560       0  309560  309257   302.4    0.00  1072.6 16839.5    0.00 16839.5 16827.1   12.48
   15 234   158       0   31794  309553       0  309553  309252   301.1    0.00  1072.5 16839.2    0.00 16839.2 16826.8   12.44
   15 235   159       0   31794  309547       0  309547  309247   299.8    0.00  1072.5 16838.8    0.00 16838.8 16826.4   12.40
   15 236   160       0   31793  309540       0  309540  309242   298.3    0.00  1072.5 16838.4    0.00 16838.4 16826.1   12.35
   15 237   161       0   31792  309530       0  309530  309236   294.8    0.00  1072.5 16838.0    0.00 16838.0 16825.7   12.23
