*SOIL ORGANIC N BALANCE

*DSSAT Cropping System Model Ver. 4.8.5.000 -release  FEB 02, 2026 11:46:55

*RUN   1        : 1                         WHAPS048 TUDU1501    1
 MODEL          : WHAPS048 - Wheat
 EXPERIMENT     : TUDU1501 WH
 DATA PATH      :
 TREATMENT  1   : 1                         WHAPS048
  


!                                        INITIAL Year/Doy      FINAL Year/Doy
!                                                  15/077              15/237
!SOIL N BALANCE                                 -----------kg N/ha-----------

!   Soil Humus N                                 16872.67            16831.06
!   Soil Litter N                                   19.50               13.15
!   N in Surface Residue                             0.00                0.00

!   Added to / Removed from Soil:
!   N in Harvest Residues from Previous Crop         0.00
!   N from Organic Applications                      0.00
!   N from senesced plant matter                     0.00
!   N immobilized                                    0.39
!   N mineralized                                                       48.36

!   Total N balance                              16892.57            16892.57
!   Balance                                                             0.002

!===============================================================================

*DSSAT Cropping System Model Ver. 4.8.5.000 -release  FEB 02, 2026 11:46:55

*RUN   2        : 2                         WHAPS048 TUDU1501    2
 MODEL          : WHAPS048 - Wheat
 EXPERIMENT     : TUDU1501 WH
 DATA PATH      :
 TREATMENT  2   : 2                         WHAPS048
  


!                                        INITIAL Year/Doy      FINAL Year/Doy
!                                                  15/077              15/237
!SOIL N BALANCE                                 -----------kg N/ha-----------

!   Soil Humus N                                 16872.67            16831.20
!   Soil Litter N                                   19.50               13.14
!   N in Surface Residue                             0.00                0.00

!   Added to / Removed from Soil:
!   N in Harvest Residues from Previous Crop         0.00
!   N from Organic Applications                      0.00
!   N from senesced plant matter                     0.00
!   N immobilized                                    0.40
!   N mineralized                                                       48.22

!   Total N balance                              16892.57            16892.57
!   Balance                                                             0.000

!===============================================================================

*DSSAT Cropping System Model Ver. 4.8.5.000 -release  FEB 02, 2026 11:46:55

*RUN   3        : 3                         WHAPS048 TUDU1501    3
 MODEL          : WHAPS048 - Wheat
 EXPERIMENT     : TUDU1501 WH
 DATA PATH      :
 TREATMENT  3   : 3                         WHAPS048
  


!                                        INITIAL Year/Doy      FINAL Year/Doy
!                                                  15/077              15/237
!SOIL N BALANCE                                 -----------kg N/ha-----------

!   Soil Humus N                                 16872.67            16825.79
!   Soil Litter N                                   19.50               12.25
!   N in Surface Residue                             0.00                0.00

!   Added to / Removed from Soil:
!   N in Harvest Residues from Previous Crop         0.00
!   N from Organic Applications                      0.00
!   N from senesced plant matter                     0.00
!   N immobilized                                    0.35
!   N mineralized                                                       54.48

!   Total N balance                              16892.52            16892.52
!   Balance                                                             0.000

!===============================================================================

*DSSAT Cropping System Model Ver. 4.8.5.000 -release  FEB 02, 2026 11:46:55

*RUN   4        : 4                         WHAPS048 TUDU1501    4
 MODEL          : WHAPS048 - Wheat
 EXPERIMENT     : TUDU1501 WH
 DATA PATH      :
 TREATMENT  4   : 4                         WHAPS048
  


!                                        INITIAL Year/Doy      FINAL Year/Doy
!                                                  15/077              15/237
!SOIL N BALANCE                                 -----------kg N/ha-----------

!   Soil Humus N                                 16872.67            16831.17
!   Soil Litter N                                   19.50               13.15
!   N in Surface Residue                             0.00                0.00

!   Added to / Removed from Soil:
!   N in Harvest Residues from Previous Crop         0.00
!   N from Organic Applications                      0.00
!   N from senesced plant matter                     0.00
!   N immobilized                                    0.40
!   N mineralized                                                       48.25

!   Total N balance                              16892.57            16892.57
!   Balance                                                             0.000

!===============================================================================

*DSSAT Cropping System Model Ver. 4.8.5.000 -release  FEB 02, 2026 11:46:56

*RUN   5        : 5                         WHAPS048 TUDU1501    5
 MODEL          : WHAPS048 - Wheat
 EXPERIMENT     : TUDU1501 WH
 DATA PATH      :
 TREATMENT  5   : 5                         WHAPS048
  


!                                        INITIAL Year/Doy      FINAL Year/Doy
!                                                  15/077              15/237
!SOIL N BALANCE                                 -----------kg N/ha-----------

!   Soil Humus N                                 16872.67            16831.39
!   Soil Litter N                                   19.50               13.01
!   N in Surface Residue                             0.00                0.00

!   Added to / Removed from Soil:
!   N in Harvest Residues from Previous Crop         0.00
!   N from Organic Applications                      0.00
!   N from senesced plant matter                     0.00
!   N immobilized                                    0.40
!   N mineralized                                                       48.17

!   Total N balance                              16892.57            16892.57
!   Balance                                                             0.000

!===============================================================================

*DSSAT Cropping System Model Ver. 4.8.5.000 -release  FEB 02, 2026 11:46:56

*RUN   6        : 6                         WHAPS048 TUDU1501    6
 MODEL          : WHAPS048 - Wheat
 EXPERIMENT     : TUDU1501 WH
 DATA PATH      :
 TREATMENT  6   : 6                         WHAPS048
  


!                                        INITIAL Year/Doy      FINAL Year/Doy
!                                                  15/077              15/237
!SOIL N BALANCE                                 -----------kg N/ha-----------

!   Soil Humus N                                 16872.67            16831.05
!   Soil Litter N                                   19.50               13.15
!   N in Surface Residue                             0.00                0.00

!   Added to / Removed from Soil:
!   N in Harvest Residues from Previous Crop         0.00
!   N from Organic Applications                      0.00
!   N from senesced plant matter                     0.00
!   N immobilized                                    0.40
!   N mineralized                                                       48.37

!   Total N balance                              16892.57            16892.57
!   Balance                                                             0.002

!===============================================================================

*DSSAT Cropping System Model Ver. 4.8.5.000 -release  FEB 02, 2026 11:46:56

*RUN   7        : 7                         WHAPS048 TUDU1501    7
 MODEL          : WHAPS048 - Wheat
 EXPERIMENT     : TUDU1501 WH
 DATA PATH      :
 TREATMENT  7   : 7                         WHAPS048
  


!                                        INITIAL Year/Doy      FINAL Year/Doy
!                                                  15/077              15/237
!SOIL N BALANCE                                 -----------kg N/ha-----------

!   Soil Humus N                                 16872.67            16831.35
!   Soil Litter N                                   19.50               13.01
!   N in Surface Residue                             0.00                0.00

!   Added to / Removed from Soil:
!   N in Harvest Residues from Previous Crop         0.00
!   N from Organic Applications                      0.00
!   N from senesced plant matter                     0.00
!   N immobilized                                    0.40
!   N mineralized                                                       48.22

!   Total N balance                              16892.57            16892.57
!   Balance                                                             0.002

!===============================================================================

*DSSAT Cropping System Model Ver. 4.8.5.000 -release  FEB 02, 2026 11:46:56

*RUN   8        : 8                         WHAPS048 TUDU1501    8
 MODEL          : WHAPS048 - Wheat
 EXPERIMENT     : TUDU1501 WH
 DATA PATH      :
 TREATMENT  8   : 8                         WHAPS048
  


!                                        INITIAL Year/Doy      FINAL Year/Doy
!                                                  15/077              15/237
!SOIL N BALANCE                                 -----------kg N/ha-----------

!   Soil Humus N                                 16872.67            16831.55
!   Soil Litter N                                   19.50               12.90
!   N in Surface Residue                             0.00                0.00

!   Added to / Removed from Soil:
!   N in Harvest Residues from Previous Crop         0.00
!   N from Organic Applications                      0.00
!   N from senesced plant matter                     0.00
!   N immobilized                                    0.40
!   N mineralized                                                       48.12

!   Total N balance                              16892.57            16892.57
!   Balance                                                             0.002

!===============================================================================

*DSSAT Cropping System Model Ver. 4.8.5.000 -release  FEB 02, 2026 11:46:56

*RUN   9        : 9                         WHAPS048 TUDU1501    9
 MODEL          : WHAPS048 - Wheat
 EXPERIMENT     : TUDU1501 WH
 DATA PATH      :
 TREATMENT  9   : 9                         WHAPS048
  


!                                        INITIAL Year/Doy      FINAL Year/Doy
!                                                  15/077              15/237
!SOIL N BALANCE                                 -----------kg N/ha-----------

!   Soil Humus N                                 16872.67            16831.50
!   Soil Litter N                                   19.50               12.83
!   N in Surface Residue                             0.00                0.00

!   Added to / Removed from Soil:
!   N in Harvest Residues from Previous Crop         0.00
!   N from Organic Applications                      0.00
!   N from senesced plant matter                     0.00
!   N immobilized                                    0.40
!   N mineralized                                                       48.23

!   Total N balance                              16892.57            16892.57
!   Balance                                                             0.004

!===============================================================================

*DSSAT Cropping System Model Ver. 4.8.5.000 -release  FEB 02, 2026 11:46:57

*RUN  10        : 10                        WHAPS048 TUDU1501   10
 MODEL          : WHAPS048 - Wheat
 EXPERIMENT     : TUDU1501 WH
 DATA PATH      :
 TREATMENT 10   : 10                        WHAPS048
  


!                                        INITIAL Year/Doy      FINAL Year/Doy
!                                                  15/077              15/237
!SOIL N BALANCE                                 -----------kg N/ha-----------

!   Soil Humus N                                 16872.67            16825.79
!   Soil Litter N                                   19.50               12.25
!   N in Surface Residue                             0.00                0.00

!   Added to / Removed from Soil:
!   N in Harvest Residues from Previous Crop         0.00
!   N from Organic Applications                      0.00
!   N from senesced plant matter                     0.00
!   N immobilized                                    0.35
!   N mineralized                                                       54.48

!   Total N balance                              16892.52            16892.52
!   Balance                                                             0.000

!===============================================================================

*DSSAT Cropping System Model Ver. 4.8.5.000 -release  FEB 02, 2026 11:46:57

*RUN  11        : 11                        WHAPS048 TUDU1501   11
 MODEL          : WHAPS048 - Wheat
 EXPERIMENT     : TUDU1501 WH
 DATA PATH      :
 TREATMENT 11   : 11                        WHAPS048
  


!                                        INITIAL Year/Doy      FINAL Year/Doy
!                                                  15/077              15/237
!SOIL N BALANCE                                 -----------kg N/ha-----------

!   Soil Humus N                                 16872.67            16831.55
!   Soil Litter N                                   19.50               12.90
!   N in Surface Residue                             0.00                0.00

!   Added to / Removed from Soil:
!   N in Harvest Residues from Previous Crop         0.00
!   N from Organic Applications                      0.00
!   N from senesced plant matter                     0.00
!   N immobilized                                    0.40
!   N mineralized                                                       48.12

!   Total N balance                              16892.57            16892.57
!   Balance                                                             0.002

!===============================================================================

*DSSAT Cropping System Model Ver. 4.8.5.000 -release  FEB 02, 2026 11:46:57

*RUN  12        : 12                        WHAPS048 TUDU1501   12
 MODEL          : WHAPS048 - Wheat
 EXPERIMENT     : TUDU1501 WH
 DATA PATH      :
 TREATMENT 12   : 12                        WHAPS048
  


!                                        INITIAL Year/Doy      FINAL Year/Doy
!                                                  15/077              15/237
!SOIL N BALANCE                                 -----------kg N/ha-----------

!   Soil Humus N                                 16872.67            16831.49
!   Soil Litter N                                   19.50               12.84
!   N in Surface Residue                             0.00                0.00

!   Added to / Removed from Soil:
!   N in Harvest Residues from Previous Crop         0.00
!   N from Organic Applications                      0.00
!   N from senesced plant matter                     0.00
!   N immobilized                                    0.40
!   N mineralized                                                       48.24

!   Total N balance                              16892.57            16892.57
!   Balance                                                             0.000

!===============================================================================

*DSSAT Cropping System Model Ver. 4.8.5.000 -release  FEB 02, 2026 11:46:57

*RUN  13        : 13                        WHAPS048 TUDU1501   13
 MODEL          : WHAPS048 - Wheat
 EXPERIMENT     : TUDU1501 WH
 DATA PATH      :
 TREATMENT 13   : 13                        WHAPS048
  


!                                        INITIAL Year/Doy      FINAL Year/Doy
!                                                  15/077              15/237
!SOIL N BALANCE                                 -----------kg N/ha-----------

!   Soil Humus N                                 16872.67            16831.53
!   Soil Litter N                                   19.50               12.91
!   N in Surface Residue                             0.00                0.00

!   Added to / Removed from Soil:
!   N in Harvest Residues from Previous Crop         0.00
!   N from Organic Applications                      0.00
!   N from senesced plant matter                     0.00
!   N immobilized                                    0.40
!   N mineralized                                                       48.13

!   Total N balance                              16892.57            16892.57
!   Balance                                                             0.002

!===============================================================================

*DSSAT Cropping System Model Ver. 4.8.5.000 -release  FEB 02, 2026 11:46:57

*RUN  14        : 14                        WHAPS048 TUDU1501   14
 MODEL          : WHAPS048 - Wheat
 EXPERIMENT     : TUDU1501 WH
 DATA PATH      :
 TREATMENT 14   : 14                        WHAPS048
  


!                                        INITIAL Year/Doy      FINAL Year/Doy
!                                                  15/077              15/237
!SOIL N BALANCE                                 -----------kg N/ha-----------

!   Soil Humus N                                 16872.67            16831.16
!   Soil Litter N                                   19.50               13.00
!   N in Surface Residue                             0.00                0.00

!   Added to / Removed from Soil:
!   N in Harvest Residues from Previous Crop         0.00
!   N from Organic Applications                      0.00
!   N from senesced plant matter                     0.00
!   N immobilized                                    0.40
!   N mineralized                                                       48.41

!   Total N balance                              16892.57            16892.57
!   Balance                                                             0.002

!===============================================================================

*DSSAT Cropping System Model Ver. 4.8.5.000 -release  FEB 02, 2026 11:46:57

*RUN  15        : 15                        WHAPS048 TUDU1501   15
 MODEL          : WHAPS048 - Wheat
 EXPERIMENT     : TUDU1501 WH
 DATA PATH      :
 TREATMENT 15   : 15                        WHAPS048
  


!                                        INITIAL Year/Doy      FINAL Year/Doy
!                                                  15/077              15/237
!SOIL N BALANCE                                 -----------kg N/ha-----------

!   Soil Humus N                                 16872.67            16825.73
!   Soil Litter N                                   19.50               12.23
!   N in Surface Residue                             0.00                0.00

!   Added to / Removed from Soil:
!   N in Harvest Residues from Previous Crop         0.00
!   N from Organic Applications                      0.00
!   N from senesced plant matter                     0.00
!   N immobilized                                    0.35
!   N mineralized                                                       54.56

!   Total N balance                              16892.52            16892.52
!   Balance                                                             0.000
