*Soil Inorganic Nitrogen daily output file

*DSSAT Cropping System Model Ver. 4.8.5.000 -release  FEB 02, 2026 11:46:55

*RUN   1        : 1                         WHAPS048 TUDU1501    1
 MODEL          : WHAPS048 - Wheat
 EXPERIMENT     : TUDU1501 WH
 DATA PATH      :
 TREATMENT  1   : 1                         WHAPS048
  
!                                                                                                                                      NO3 (ppm) at soil dep. (cm):                                                    NH4 (ppm) at soil dep. (cm):                                                    Total Inorganic N @dep(ppm):
!                                                                                                                                       0-5    5-15   15-20   20-30   30-40   40-50   50-60   60-70   70-90  90-210     0-5    5-15   15-20   20-30   30-40   40-50   50-60   60-70   70-90  90-210     0-5    5-15   15-20   20-30   30-40   40-50   50-60   60-70   70-90  90-210
@YEAR DOY   DAS  NAPC  NI#M    NIAD    NITD    NHTD   NURTD    NMNC    NITC    NDNC    NIMC    AMLC   NNMNC    NUCM    NLCC    TDNC    NI1D    NI2D    NI3D    NI4D    NI5D    NI6D    NI7D    NI8D    NI9D    NI10    NH1D    NH2D    NH3D    NH4D    NH5D    NH6D    NH7D    NH8D    NH9D    NH10    NT1D    NT2D    NT3D    NT4D    NT5D    NT6D    NT7D    NT8D    NT9D    NT10    
   15 076     0     0     0   102.6    93.5     9.1     0.0    0.00    0.00    0.00    0.00    0.00    0.00    0.00    0.00    0.00    3.10     3.1     3.1    3.10    3.10    3.10    3.10    3.10    3.10    3.10    0.30    0.30    0.30    0.30    0.30    0.30    0.30    0.30    0.30    0.30    3.40    3.40    3.40    3.40    3.40    3.40    3.40    3.40    3.40    3.40
   15 077     1     0     0   102.6    94.7     7.9     0.0    0.07    1.12    0.00    0.06    0.00    0.01    0.00    0.00    0.00    3.13     3.1     3.1    3.14    3.13    3.14    3.14    3.14    3.14    3.14    0.24    0.24    0.26    0.26    0.27    0.26    0.26    0.26    0.26    0.26    3.37    3.37    3.40    3.40    3.40    3.40    3.40    3.40    3.40    3.40
   15 078     2     0     0   102.6    95.6     7.0     0.0    0.13    2.06    0.00    0.10    0.00    0.03    0.00    0.00    0.00    3.79     3.1     3.2    3.13    3.14    3.15    3.15    3.16    3.16    3.16    0.19    0.19    0.23    0.23    0.24    0.23    0.23    0.24    0.23    0.24    3.98    3.27    3.40    3.36    3.38    3.38    3.39    3.39    3.39    3.39
   15 079     3     0     0   102.6    96.4     6.3     0.0    0.19    2.86    0.00    0.13    0.00    0.06    0.00    0.00    0.00    4.45     3.0     3.2    3.11    3.14    3.16    3.16    3.18    3.17    3.18    0.16    0.16    0.21    0.21    0.21    0.21    0.21    0.21    0.21    0.21    4.61    3.18    3.41    3.32    3.36    3.37    3.37    3.39    3.38    3.39
   15 080     4     0     0   102.7    97.1     5.6     0.0    0.23    3.52    0.00    0.15    0.00    0.08    0.00    0.00    0.00    4.47     3.0     3.2    3.13    3.16    3.18    3.18    3.20    3.19    3.20    0.14    0.13    0.19    0.19    0.19    0.19    0.19    0.19    0.19    0.19    4.61    3.18    3.40    3.32    3.36    3.37    3.37    3.39    3.38    3.39
   15 081     5     0     0   102.7    97.6     5.1     0.0    0.26    4.08    0.00    0.16    0.00    0.10    0.00    0.00    0.00    4.53     3.0     3.2    3.14    3.18    3.19    3.20    3.22    3.21    3.22    0.12    0.12    0.17    0.17    0.18    0.17    0.17    0.17    0.17    0.17    4.65    3.16    3.39    3.32    3.36    3.36    3.37    3.39    3.38    3.39
   15 082     6     0     0   102.7    98.1     4.6     0.0    0.28    4.55    0.00    0.16    0.00    0.12    0.00    0.00    0.00    4.58     3.0     3.2    3.16    3.19    3.21    3.21    3.23    3.23    3.23    0.11    0.11    0.16    0.16    0.16    0.16    0.16    0.16    0.16    0.16    4.69    3.15    3.39    3.31    3.35    3.36    3.37    3.39    3.38    3.39
   15 083     7     0     0   102.7    98.5     4.2     0.0    0.29    4.96    0.00    0.16    0.00    0.12    0.00    0.00    0.00    4.64     3.0     3.2    3.16    3.20    3.22    3.23    3.24    3.24    3.25    0.10    0.10    0.15    0.15    0.15    0.14    0.15    0.15    0.14    0.14    4.75    3.13    3.38    3.31    3.35    3.36    3.37    3.39    3.38    3.39
   15 084     8     0     0   102.7    98.9     3.9     0.0    0.29    5.33    0.00    0.16    0.00    0.13    0.00    0.00    0.00    4.70     3.0     3.2    3.17    3.21    3.23    3.24    3.25    3.25    3.26    0.09    0.09    0.14    0.13    0.14    0.13    0.13    0.13    0.13    0.13    4.80    3.12    3.38    3.31    3.35    3.36    3.37    3.39    3.38    3.39
   15 085     9     0     0   102.7    99.2     3.5     0.0    0.31    5.68    0.00    0.16    0.00    0.14    0.00    0.00    0.00    4.76     3.0     3.2    3.18    3.22    3.24    3.25    3.27    3.26    3.27    0.09    0.09    0.13    0.12    0.13    0.12    0.12    0.12    0.12    0.12    4.85    3.10    3.37    3.30    3.35    3.36    3.37    3.39    3.38    3.39
   15 086    10     0     0   102.7    99.5     3.2     0.0    0.32    6.01    0.00    0.16    0.00    0.16    0.00    0.00    0.00    4.81     3.0     3.3    3.19    3.23    3.25    3.26    3.28    3.27    3.28    0.08    0.08    0.12    0.11    0.12    0.11    0.11    0.11    0.11    0.11    4.89    3.09    3.37    3.30    3.35    3.36    3.37    3.39    3.38    3.39
   15 087    11     0     0   102.7    99.8     2.9     0.0    0.34    6.31    0.00    0.17    0.00    0.17    0.00    0.00    0.00    4.87     3.0     3.3    3.20    3.24    3.26    3.27    3.29    3.28    3.29    0.07    0.07    0.11    0.10    0.11    0.10    0.10    0.10    0.10    0.10    4.94    3.07    3.36    3.30    3.35    3.36    3.37    3.39    3.38    3.39
   15 088    12     0     0   102.8   100.1     2.7     0.0    0.37    6.59    0.00    0.17    0.00    0.20    0.00    0.00    0.00    4.92     3.0     3.3    3.20    3.25    3.27    3.28    3.29    3.29    3.30    0.07    0.06    0.10    0.10    0.10    0.09    0.09    0.09    0.09    0.09    4.99    3.05    3.36    3.30    3.35    3.36    3.37    3.39    3.38    3.39
   15 089    13     0     0   102.8   100.4     2.4     0.0    0.40    6.86    0.00    0.18    0.00    0.22    0.00    0.00    0.00    4.31     3.3     3.3    3.21    3.26    3.27    3.29    3.30    3.30    3.31    0.06    0.05    0.09    0.09    0.09    0.08    0.09    0.09    0.08    0.08    4.37    3.36    3.35    3.29    3.35    3.36    3.37    3.39    3.38    3.39
   15 090    14     0     0   102.6   100.4     2.2     0.0    0.43    7.10    0.00    0.19    0.00    0.24    0.18    0.00    0.00    3.67     3.5     3.3    3.21    3.26    3.28    3.29    3.31    3.31    3.32    0.04    0.04    0.08    0.08    0.08    0.08    0.08    0.08    0.07    0.07    3.72    3.55    3.35    3.29    3.34    3.36    3.37    3.39    3.38    3.39
   15 091    15     0     0   102.6   100.6     2.0     0.0    0.47    7.32    0.00    0.20    0.00    0.26    0.22    0.00    0.00    3.47     3.6     3.4    3.20    3.26    3.28    3.29    3.31    3.31    3.32    0.03    0.03    0.07    0.07    0.07    0.07    0.07    0.07    0.07    0.07    3.50    3.65    3.50    3.27    3.33    3.35    3.36    3.38    3.38    3.39
   15 092    16     0     0   102.5   100.7     1.8     0.0    0.49    7.51    0.00    0.21    0.00    0.28    0.33    0.00    0.00    3.26     3.6     3.7    3.27    3.25    3.28    3.29    3.31    3.31    3.32    0.03    0.02    0.07    0.07    0.07    0.06    0.07    0.07    0.06    0.06    3.28    3.63    3.74    3.33    3.32    3.34    3.35    3.38    3.37    3.38
   15 093    17     0     0   102.5   100.8     1.7     0.0    0.51    7.68    0.00    0.22    0.00    0.29    0.35    0.00    0.00    3.17     3.4     3.6    3.49    3.34    3.28    3.29    3.31    3.31    3.32    0.03    0.02    0.06    0.06    0.06    0.06    0.06    0.06    0.06    0.06    3.20    3.47    3.64    3.55    3.40    3.34    3.35    3.37    3.37    3.38
   15 094    18     0     0   102.5   101.0     1.5     0.0    0.51    7.82    0.00    0.22    0.00    0.30    0.38    0.00    0.00    3.37     3.4     3.7    3.51    3.35    3.27    3.28    3.31    3.30    3.31    0.02    0.02    0.06    0.06    0.06    0.05    0.05    0.06    0.05    0.05    3.39    3.46    3.77    3.57    3.40    3.32    3.33    3.37    3.35    3.37
   15 095    19     0     0   102.4   101.0     1.4     0.0    0.51    7.95    0.00    0.22    0.00    0.30    0.45    0.00    0.00    3.27     3.3     3.6    3.51    3.36    3.39    3.38    3.31    3.30    3.32    0.02    0.02    0.06    0.05    0.05    0.05    0.05    0.05    0.05    0.05    3.30    3.34    3.65    3.56    3.42    3.44    3.43    3.36    3.35    3.36
   15 096    20     0     0   102.4   101.1     1.3     0.0    0.51    8.06    0.00    0.22    0.00    0.30    0.48    0.00    0.00    3.56     3.3     3.5    3.49    3.37    3.40    3.40    3.31    3.30    3.31    0.02    0.02    0.05    0.05    0.05    0.05    0.05    0.05    0.04    0.04    3.58    3.30    3.60    3.54    3.42    3.45    3.45    3.35    3.34    3.36
   15 097    21     0     0   102.4   101.2     1.2     0.0    0.51    8.16    0.00    0.22    0.00    0.30    0.51    0.00    0.00    3.87     3.3     3.5    3.48    3.36    3.39    3.39    3.31    3.29    3.31    0.02    0.01    0.05    0.05    0.05    0.04    0.04    0.04    0.04    0.04    3.89    3.27    3.58    3.52    3.41    3.44    3.44    3.35    3.34    3.35
   15 098    22    40     1   125.1   101.3    23.8    16.5    0.51    8.25    0.00    0.22    0.78    0.30    0.53    0.00    0.00    4.54     3.2     3.5    3.44    3.34    3.38    3.38    3.30    3.29    3.30   35.22    0.01    0.05    0.04    0.04    0.04    0.04    0.04    0.04    0.04   39.77    3.20    3.57    3.48    3.38    3.42    3.42    3.34    3.32    3.34
   15 099    23    40     1   131.5   102.8    28.7     9.5    0.51    9.76    0.00    0.22    1.26    0.30    0.58    0.00    0.00    6.86     3.2     3.5    3.44    3.34    3.38    3.38    3.30    3.29    3.31   42.96    0.01    0.04    0.04    0.04    0.04    0.04    0.04    0.03    0.03   49.82    3.19    3.56    3.48    3.38    3.42    3.42    3.34    3.32    3.34
   15 100    24    40     1   135.1   104.8    30.3     5.2    0.52   11.80    0.00    0.22    1.70    0.30    0.80    0.00    0.00    9.92     3.1     3.5    3.44    3.35    3.38    3.39    3.30    3.29    3.31   45.60    0.01    0.04    0.04    0.04    0.03    0.03    0.03    0.03    0.03   55.52    3.16    3.55    3.48    3.38    3.42    3.42    3.34    3.32    3.34
   15 101    25    40     1   136.9   107.1    29.9     2.6    0.55   14.28    0.00    0.22    1.89    0.32    1.43    0.00    0.00   13.43     3.1     3.5    3.44    3.35    3.39    3.39    3.31    3.29    3.31   45.00    0.01    0.04    0.03    0.03    0.03    0.03    0.03    0.03    0.03   58.43    3.08    3.55    3.47    3.38    3.42    3.42    3.34    3.32    3.34
   15 102    26    40     1   137.8   109.7    28.0     1.2    0.60   17.14    0.00    0.24    2.06    0.36    1.92    0.00    0.00   17.57     3.0     3.5    3.44    3.35    3.39    3.39    3.31    3.30    3.31   42.25    0.00    0.03    0.03    0.03    0.03    0.03    0.03    0.03    0.03   59.82    3.00    3.54    3.47    3.38    3.42    3.42    3.34    3.32    3.34
   15 103    27    40     1   137.7   112.4    25.3     0.5    0.68   20.22    0.00    0.26    2.19    0.42    2.57    0.00    0.00   21.96     2.8     3.5    3.44    3.35    3.39    3.39    3.31    3.30    3.32   38.01    0.00    0.03    0.03    0.03    0.03    0.03    0.03    0.03    0.03   59.97    2.84    3.53    3.47    3.38    3.42    3.42    3.34    3.33    3.34
   15 104    28    40     1   137.2   114.8    22.4     0.2    0.78   23.10    0.00    0.29    2.31    0.49    3.31    0.00    0.00   26.05     2.6     3.5    3.44    3.35    3.39    3.40    3.32    3.30    3.32   33.56    0.00    0.03    0.02    0.03    0.02    0.03    0.03    0.03    0.03   59.61    2.59    3.50    3.46    3.38    3.42    3.43    3.35    3.33    3.35
   15 105    29    40     1   136.8   116.8    20.0     0.1    0.89   25.51    0.00    0.30    2.43    0.58    3.76    0.00    0.00   29.61     2.3     3.4    3.43    3.36    3.40    3.40    3.32    3.31    3.32   29.80    0.00    0.03    0.02    0.03    0.02    0.03    0.03    0.03    0.03   59.41    2.35    3.46    3.45    3.38    3.42    3.43    3.35    3.33    3.35
   15 106    30    40     1   136.5   118.6    18.0     0.0    1.01   27.58    0.00    0.32    2.53    0.69    4.10    0.00    0.00   32.73     2.1     3.4    3.41    3.36    3.40    3.40    3.32    3.31    3.33   26.59    0.00    0.03    0.02    0.03    0.02    0.03    0.03    0.03    0.03   59.32    2.13    3.39    3.43    3.39    3.42    3.43    3.35    3.34    3.36
   15 107    31    40     1   136.2   120.0    16.2     0.0    1.15   29.40    0.00    0.33    2.61    0.83    4.45    0.00    0.00   11.77    11.7     5.8    3.87    3.46    3.43    3.41    3.33    3.31    3.33   23.82    0.00    0.03    0.02    0.03    0.02    0.03    0.03    0.03    0.03   35.58   11.65    5.83    3.90    3.49    3.45    3.43    3.36    3.34    3.36
   15 108    32    40     1   132.5   119.1    13.4     0.0    1.30   30.54    0.00    0.35    2.62    0.94    8.31    0.00    0.00   11.24     9.9     6.2    4.05    3.54    3.46    3.50    3.54    3.49    3.33   19.44    0.00    0.03    0.02    0.03    0.02    0.03    0.03    0.03    0.03   30.69    9.94    6.27    4.07    3.57    3.49    3.53    3.58    3.52    3.36
   15 109    33    40     1   131.7   120.0    11.7     0.0    1.42   31.96    0.00    0.37    2.64    1.05    9.18    0.00    0.00   13.81     9.2     6.1    4.13    3.57    3.48    3.51    3.55    3.52    3.39   16.72    0.00    0.03    0.02    0.03    0.02    0.03    0.03    0.03    0.03   30.52    9.15    6.17    4.16    3.60    3.50    3.53    3.58    3.55    3.42
   15 110    34    40     1   130.9   120.8    10.1     0.0    1.52   33.22    0.00    0.39    2.66    1.14   10.08    0.00    0.00   16.99     8.5     5.8    4.10    3.57    3.46    3.49    3.54    3.51    3.38   14.25    0.00    0.03    0.02    0.03    0.03    0.03    0.03    0.03    0.03   31.24    8.53    5.82    4.12    3.60    3.48    3.52    3.57    3.54    3.41
   15 111    35    40     1   129.4   120.9     8.6     0.0    1.61   34.19    0.00    0.39    2.69    1.21   11.55    0.00    0.00   19.30     7.9     5.5    4.00    3.53    3.44    3.48    3.53    3.50    3.37   11.97    0.00    0.03    0.02    0.03    0.03    0.03    0.03    0.03    0.03   31.27    7.90    5.50    4.03    3.56    3.46    3.51    3.57    3.52    3.40
   15 112    36    40     1   127.2   120.1     7.2     0.0    1.67   34.93    0.00    0.39    2.69    1.28   13.81    0.00    0.00   18.95     7.5     5.4    3.95    3.53    3.44    3.48    3.54    3.50    3.37    9.84    0.00    0.03    0.02    0.03    0.02    0.03    0.03    0.03    0.03   28.79    7.51    5.39    3.98    3.56    3.46    3.51    3.57    3.53    3.40
   15 113    37    40     1   124.7   118.7     6.0     0.0    1.74   35.56    0.00    0.39    2.70    1.34   16.36    0.00    0.00   18.54     6.9     5.1    3.85    3.51    3.44    3.48    3.54    3.50    3.38    8.10    0.00    0.03    0.02    0.03    0.02    0.03    0.03    0.02    0.03   26.63    6.88    5.16    3.88    3.54    3.47    3.51    3.57    3.53    3.41
   15 114    38    40     1   123.6   118.2     5.4     0.0    1.81   36.13    0.00    0.39    2.70    1.42   17.57    0.00    0.00   18.95     6.4     4.9    3.77    3.48    3.44    3.49    3.54    3.51    3.38    7.09    0.00    0.03    0.02    0.03    0.02    0.03    0.03    0.02    0.03   26.05    6.45    4.97    3.79    3.51    3.47    3.51    3.57    3.53    3.41
   15 115    39    40     1   121.7   117.0     4.8     0.0    1.90   36.65    0.00    0.39    2.71    1.50   19.51    0.00    0.00   19.31     5.7     4.6    3.60    3.43    3.44    3.49    3.55    3.51    3.38    6.19    0.00    0.03    0.02    0.03    0.02    0.03    0.03    0.02    0.03   25.49    5.67    4.61    3.62    3.46    3.47    3.51    3.57    3.53    3.41
   15 116    40    40     1   119.5   115.3     4.2     0.0    2.00   37.14    0.00    0.39    2.71    1.61   21.85    0.00    0.00   19.25     4.9     4.2    3.38    3.34    3.45    3.49    3.55    3.51    3.39    5.22    0.01    0.03    0.02    0.03    0.03    0.03    0.03    0.02    0.03   24.47    4.93    4.19    3.40    3.37    3.47    3.52    3.58    3.53    3.41
   15 117    41    40     1   117.1   113.6     3.6     0.0    2.13   37.59    0.00    0.39    2.72    1.74   24.32    0.00    0.00   18.02     4.7     3.8    3.17    3.24    3.44    3.49    3.55    3.51    3.39    4.24    0.01    0.03    0.02    0.03    0.03    0.03    0.03    0.03    0.03   22.26    4.68    3.79    3.19    3.27    3.47    3.52    3.58    3.54    3.42
   15 118    42    40     1   112.5   110.2     2.4     0.0    2.28   37.90    0.00    0.39    2.72    1.89   29.08    0.00    0.00   11.34     5.6     3.6    3.06    3.18    3.44    3.50    3.55    3.52    3.39    2.32    0.01    0.03    0.03    0.03    0.03    0.03    0.03    0.03    0.03   13.66    5.57    3.61    3.08    3.21    3.47    3.53    3.59    3.54    3.42
   15 119    43    40     1   110.4   108.4     2.0     0.0    2.45   38.13    0.00    0.39    2.73    2.05   31.38    0.00    0.00    9.35     5.4     3.4    2.97    3.12    3.43    3.50    3.56    3.52    3.39    1.66    0.02    0.04    0.03    0.04    0.03    0.03    0.03    0.03    0.03   11.01    5.44    3.44    3.00    3.16    3.46    3.53    3.59    3.54    3.42
   15 120    44    40     1   109.3   107.6     1.7     0.0    2.61   38.35    0.00    0.39    2.74    2.21   32.62    0.00    0.00    8.77     5.3     3.3    2.92    3.10    3.41    3.49    3.55    3.51    3.39    1.24    0.03    0.04    0.03    0.04    0.03    0.03    0.04    0.03    0.03   10.01    5.29    3.33    2.95    3.13    3.44    3.52    3.59    3.54    3.42
   15 121    45    40     1   106.6   105.2     1.4     0.0    2.77   38.53    0.00    0.39    2.74    2.37   35.45    0.00    0.00    2.74     4.2     5.2    3.70    3.44    3.52    3.52    3.55    3.51    3.39    0.73    0.03    0.04    0.03    0.04    0.03    0.04    0.04    0.03    0.03    3.47    4.19    5.29    3.73    3.48    3.55    3.55    3.58    3.54    3.42
   15 122    46    40     1   104.5   103.2     1.3     0.0    2.89   38.66    0.00    0.39    2.75    2.50   37.68    0.00    0.00    1.78     3.4     4.6    3.59    3.37    3.55    3.63    3.61    3.51    3.39    0.45    0.03    0.04    0.03    0.04    0.03    0.04    0.04    0.03    0.03    2.24    3.44    4.67    3.63    3.41    3.58    3.67    3.65    3.54    3.42
   15 123    47    40     1   102.0   100.9     1.1     0.0    3.00   38.76    0.00    0.39    2.75    2.60   40.28    0.00    0.00    0.63     2.4     3.8    3.50    3.33    3.55    3.74    3.72    3.55    3.39    0.16    0.03    0.04    0.03    0.04    0.03    0.04    0.04    0.03    0.03    0.79    2.44    3.89    3.53    3.36    3.58    3.78    3.76    3.58    3.42
   15 124    48    40     1   100.7    99.6     1.0     0.0    3.14   38.87    0.00    0.39    2.76    2.74   41.74    0.00    0.00    0.48     1.9     2.9    2.99    2.94    3.17    3.47    3.57    3.53    3.55    0.11    0.04    0.05    0.04    0.04    0.03    0.04    0.04    0.03    0.03    0.60    1.89    2.99    3.03    2.98    3.20    3.51    3.61    3.56    3.58
   15 125    49    40     1    98.5    97.5     1.0     0.0    3.33   38.98    0.00    0.39    2.76    2.94   44.12    0.00    0.00    0.20     1.3     2.4    2.59    2.68    3.01    3.49    3.62    3.57    3.55    0.02    0.04    0.05    0.04    0.04    0.04    0.04    0.04    0.03    0.03    0.23    1.34    2.42    2.63    2.72    3.05    3.53    3.66    3.61    3.58
   15 126    50    40     1    96.5    95.4     1.1     0.0    3.59   39.11    0.02    0.39    2.77    3.19   46.36    0.00    0.00    0.09     0.6     1.4    2.20    2.55    2.90    3.50    3.70    3.60    3.58    0.02    0.05    0.05    0.04    0.04    0.04    0.04    0.04    0.03    0.03    0.11    0.66    1.45    2.23    2.60    2.94    3.54    3.74    3.63    3.62
   15 127    51    40     1    93.7    92.5     1.2     0.0    3.87   39.25    0.06    0.39    2.77    3.48   47.38    1.99    0.00    0.07     0.5     1.0    1.74    2.08    2.42    3.02    3.39    3.49    3.54    0.04    0.06    0.05    0.05    0.05    0.04    0.05    0.05    0.04    0.04    0.11    0.54    1.08    1.78    2.13    2.46    3.07    3.44    3.53    3.58
   15 128    52    40     1    91.0    89.7     1.3     0.0    4.18   39.41    0.08    0.39    2.77    3.78   49.04    3.33    0.00    0.04     0.3     0.8    1.36    1.70    2.05    2.72    3.23    3.44    3.52    0.03    0.07    0.05    0.05    0.05    0.04    0.05    0.05    0.04    0.04    0.07    0.41    0.82    1.41    1.74    2.10    2.77    3.28    3.48    3.56
   15 129    53    40     1    89.4    88.1     1.3     0.0    4.51   39.58    0.08    0.39    2.77    4.11   50.96    3.33    0.00    0.02     0.2     0.6    1.06    1.39    1.78    2.56    3.24    3.46    3.52    0.03    0.07    0.05    0.05    0.05    0.04    0.05    0.06    0.04    0.04    0.05    0.27    0.61    1.11    1.44    1.82    2.61    3.29    3.51    3.56
   15 130    54    40     1    87.6    86.2     1.4     0.0    4.82   39.75    0.09    0.39    2.77    4.42   52.82    3.62    0.00    0.01     0.1     0.4    0.78    1.09    1.48    2.28    3.17    3.45    3.52    0.03    0.06    0.04    0.04    0.05    0.04    0.05    0.06    0.05    0.05    0.04    0.18    0.43    0.82    1.14    1.52    2.33    3.23    3.50    3.56
   15 131    55    40     1    86.1    84.8     1.4     0.0    5.10   39.92    0.09    0.39    2.77    4.71   54.56    3.62    0.00    0.01     0.1     0.3    0.56    0.85    1.22    2.03    3.16    3.45    3.52    0.03    0.06    0.04    0.04    0.04    0.04    0.05    0.06    0.05    0.05    0.03    0.13    0.30    0.60    0.89    1.26    2.08    3.22    3.50    3.57
   15 132    56    40     1    84.9    83.6     1.4     0.0    5.41   40.10    0.09    0.39    2.77    5.01   56.03    3.62    0.00    0.00     0.0     0.2    0.41    0.65    1.00    1.79    3.12    3.45    3.52    0.03    0.06    0.04    0.04    0.04    0.04    0.05    0.06    0.05    0.05    0.04    0.11    0.22    0.44    0.70    1.04    1.84    3.18    3.50    3.57
   15 133    57    40     1    84.0    82.6     1.4     0.0    5.74   40.30    0.09    0.39    2.77    5.35   57.30    3.62    0.00    0.01     0.0     0.1    0.30    0.51    0.83    1.57    3.04    3.45    3.52    0.04    0.07    0.04    0.04    0.04    0.04    0.05    0.06    0.05    0.05    0.05    0.11    0.17    0.34    0.55    0.87    1.62    3.11    3.51    3.57
   15 134    58    40     1    83.2    81.7     1.4     0.0    6.11   40.50    0.09    0.39    2.77    5.71   58.48    3.62    0.00    0.00     0.0     0.1    0.24    0.41    0.69    1.37    2.90    3.46    3.53    0.04    0.07    0.04    0.04    0.04    0.04    0.05    0.06    0.06    0.05    0.04    0.10    0.15    0.28    0.45    0.73    1.42    2.96    3.51    3.58
   15 135    59    40     1    82.4    80.9     1.5     0.0    6.48   40.71    0.09    0.39    2.77    6.08   59.63    3.62    0.00    0.00     0.0     0.1    0.18    0.33    0.57    1.19    2.69    3.46    3.53    0.04    0.08    0.05    0.04    0.04    0.04    0.05    0.06    0.06    0.05    0.04    0.10    0.13    0.23    0.37    0.61    1.24    2.75    3.52    3.59
   15 136    60    40     1    81.7    80.2     1.5     0.0    6.84   40.93    0.09    0.39    2.77    6.45   60.74    3.62    0.00    0.00     0.0     0.1    0.15    0.26    0.47    1.01    2.43    3.47    3.54    0.04    0.08    0.05    0.04    0.05    0.04    0.04    0.06    0.06    0.05    0.04    0.10    0.12    0.19    0.31    0.51    1.06    2.49    3.53    3.59
   15 137    61    40     1    81.0    79.5     1.5     0.0    7.20   41.14    0.09    0.39    2.77    6.81   61.73    3.62    0.00    0.00     0.0     0.1    0.12    0.21    0.39    0.88    2.20    3.47    3.55    0.04    0.08    0.05    0.04    0.05    0.04    0.04    0.06    0.06    0.05    0.04    0.10    0.11    0.16    0.26    0.43    0.92    2.25    3.53    3.60
   15 138    62    40     1    80.4    78.9     1.5     0.0    7.53   41.36    0.09    0.39    2.77    7.14   62.66    3.62    0.00    0.00     0.0     0.1    0.10    0.17    0.32    0.74    1.94    3.48    3.55    0.04    0.08    0.05    0.04    0.05    0.04    0.04    0.05    0.06    0.05    0.04    0.10    0.10    0.14    0.22    0.36    0.79    1.99    3.54    3.61
   15 139    63    40     1    79.9    78.4     1.5     0.0    7.85   41.56    0.09    0.39    2.77    7.45   63.51    3.62    0.00    0.00     0.0     0.0    0.08    0.14    0.26    0.63    1.70    3.47    3.56    0.04    0.08    0.05    0.04    0.05    0.04    0.04    0.05    0.06    0.05    0.05    0.10    0.10    0.12    0.18    0.30    0.67    1.75    3.53    3.62
   15 140    64    40     1    79.4    77.9     1.5     0.0    8.17   41.76    0.09    0.39    2.77    7.77   64.35    3.62    0.00    0.00     0.0     0.0    0.07    0.13    0.22    0.53    1.50    3.44    3.57    0.06    0.08    0.04    0.04    0.05    0.04    0.04    0.05    0.06    0.05    0.06    0.09    0.06    0.11    0.17    0.26    0.58    1.54    3.50    3.62
   15 141    65    40     1    78.9    77.4     1.5     0.0    8.46   41.95    0.09    0.39    2.77    8.07   65.10    3.62    0.00    0.00     0.0     0.0    0.05    0.09    0.19    0.45    1.31    3.41    3.58    0.07    0.09    0.05    0.04    0.04    0.04    0.04    0.05    0.06    0.05    0.07    0.11    0.07    0.09    0.13    0.23    0.50    1.35    3.47    3.63
   15 142    66    40     1    78.0    76.5     1.5     0.0    8.74   42.13    0.09    0.39    2.77    8.35   65.83    4.09    0.00    0.00     0.0     0.0    0.04    0.06    0.13    0.35    1.04    3.20    3.57    0.06    0.09    0.05    0.04    0.04    0.04    0.04    0.04    0.06    0.05    0.06    0.11    0.07    0.08    0.10    0.16    0.39    1.08    3.25    3.63
   15 143    67    40     1    77.5    76.1     1.4     0.0    9.00   42.30    0.09    0.39    2.77    8.61   66.59    4.09    0.00    0.00     0.0     0.0    0.03    0.04    0.09    0.28    0.90    3.15    3.58    0.03    0.08    0.05    0.04    0.03    0.03    0.04    0.04    0.06    0.05    0.03    0.09    0.06    0.06    0.08    0.12    0.31    0.94    3.21    3.63
   15 144    68    40     1    77.0    75.7     1.3     0.0    9.22   42.45    0.09    0.39    2.77    8.83   67.28    4.09    0.00    0.00     0.0     0.0    0.02    0.03    0.07    0.22    0.77    3.10    3.58    0.03    0.06    0.04    0.03    0.03    0.03    0.03    0.04    0.05    0.05    0.03    0.07    0.05    0.05    0.06    0.10    0.25    0.81    3.15    3.64
   15 145    69    40     1    75.7    74.4     1.3     0.0    9.43   42.59    0.09    0.39    2.77    9.04   67.92    4.99    0.00    0.00     0.0     0.0    0.01    0.02    0.05    0.16    0.59    2.84    3.53    0.03    0.05    0.04    0.03    0.03    0.03    0.03    0.04    0.05    0.05    0.03    0.06    0.05    0.04    0.05    0.08    0.19    0.63    2.89    3.58
   15 146    70    40     1    75.0    73.8     1.3     0.0    9.69   42.73    0.09    0.39    2.77    9.30   68.50    5.34    0.00    0.00     0.0     0.0    0.01    0.02    0.04    0.12    0.48    2.69    3.51    0.03    0.05    0.03    0.03    0.03    0.03    0.03    0.04    0.05    0.05    0.03    0.06    0.04    0.04    0.05    0.06    0.15    0.52    2.75    3.56
   15 147    71    40     1    74.7    73.5     1.3     0.0    9.97   42.88    0.09    0.39    2.77    9.58   69.07    5.35    0.00    0.00     0.0     0.0    0.01    0.01    0.03    0.10    0.41    2.61    3.51    0.03    0.05    0.03    0.03    0.03    0.03    0.03    0.04    0.05    0.05    0.03    0.06    0.03    0.03    0.04    0.05    0.13    0.45    2.66    3.56
   15 148    72    40     1    74.4    73.2     1.3     0.0   10.25   43.03    0.09    0.39    2.77    9.85   69.63    5.35    0.00    0.00     0.0     0.0    0.01    0.01    0.02    0.08    0.35    2.52    3.52    0.03    0.05    0.03    0.03    0.03    0.03    0.03    0.04    0.05    0.05    0.03    0.06    0.03    0.03    0.04    0.05    0.11    0.39    2.58    3.57
   15 149    73    40     1    74.2    72.9     1.3     0.0   10.53   43.17    0.09    0.39    2.77   10.14   70.19    5.35    0.00    0.00     0.0     0.0    0.01    0.01    0.02    0.06    0.31    2.43    3.52    0.03    0.05    0.03    0.03    0.03    0.03    0.03    0.04    0.05    0.05    0.03    0.06    0.03    0.03    0.04    0.04    0.09    0.35    2.48    3.57
   15 150    74    40     1    73.9    72.6     1.3     0.0   10.85   43.33    0.09    0.39    2.77   10.45   70.76    5.35    0.00    0.00     0.0     0.0    0.01    0.01    0.01    0.05    0.27    2.33    3.53    0.03    0.06    0.03    0.03    0.03    0.03    0.03    0.04    0.05    0.05    0.03    0.06    0.03    0.03    0.04    0.04    0.08    0.31    2.38    3.58
   15 151    75    40     1    73.6    72.3     1.3     0.0   11.17   43.49    0.09    0.39    2.77   10.77   71.33    5.35    0.00    0.00     0.0     0.0    0.01    0.01    0.01    0.04    0.24    2.22    3.54    0.04    0.06    0.03    0.03    0.03    0.03    0.03    0.04    0.05    0.05    0.04    0.07    0.03    0.03    0.04    0.04    0.07    0.27    2.27    3.59
   15 152    76    80     2   110.0    72.2    37.8     3.3   11.52   43.66    0.09    0.39    2.97   11.12   71.91    5.35    0.00    0.19     0.0     0.0    0.01    0.01    0.01    0.04    0.21    2.11    3.54   56.51    0.07    0.03    0.03    0.03    0.03    0.03    0.04    0.05    0.05   56.70    0.08    0.03    0.04    0.04    0.04    0.07    0.25    2.16    3.60
   15 153    77    80     2   106.7    77.3    29.4     0.7   11.95   49.11    0.09    0.39    3.13   11.56   77.91    5.35    0.00    8.34     0.0     0.0    0.01    0.01    0.01    0.04    0.19    2.02    3.55   43.38    0.09    0.04    0.04    0.04    0.03    0.04    0.04    0.05    0.06   51.72    0.10    0.05    0.04    0.05    0.05    0.07    0.23    2.08    3.61
   15 154    78    80     2   101.6    80.2    21.4     0.1   12.45   53.93    0.09    0.39    3.29   12.05   83.91    5.35    0.00   12.88     0.0     0.0    0.01    0.01    0.02    0.04    0.17    1.95    3.56   30.88    0.11    0.05    0.04    0.05    0.04    0.04    0.05    0.05    0.06   43.76    0.13    0.06    0.06    0.06    0.06    0.08    0.22    2.00    3.62
   15 155    79    80     2    96.2    81.3    14.8     0.0   12.98   57.62    0.09    0.39    3.39   12.58   89.91    5.35    0.00   14.90     0.0     0.0    0.01    0.02    0.02    0.04    0.15    1.85    3.57   20.50    0.12    0.05    0.05    0.05    0.04    0.05    0.05    0.06    0.06   35.40    0.14    0.06    0.06    0.07    0.06    0.08    0.20    1.90    3.63
   15 156    80    80     2    93.0    82.3    10.7     0.0   13.54   60.48    0.09    0.39    3.42   13.15   93.58    5.35    0.00   16.70     0.0     0.0    0.02    0.02    0.02    0.04    0.14    1.74    3.57   13.98    0.13    0.06    0.05    0.05    0.05    0.05    0.05    0.06    0.06   30.68    0.16    0.07    0.07    0.07    0.07    0.08    0.19    1.79    3.63
   15 157    81    80     2    91.6    83.5     8.1     0.0   14.15   62.86    0.09    0.39    3.45   13.75   95.54    5.35    0.00   18.81     0.0     0.0    0.02    0.02    0.02    0.04    0.13    1.63    3.56    9.81    0.14    0.06    0.06    0.06    0.05    0.05    0.06    0.06    0.06   28.62    0.18    0.08    0.08    0.08    0.08    0.09    0.18    1.69    3.62
   15 158    82    80     2    86.2    81.3     5.0     0.0   14.78   64.30    0.09    0.39    3.48   14.39  101.54    5.35    0.00   15.28     0.1     0.0    0.03    0.03    0.03    0.04    0.12    1.56    3.54    4.80    0.15    0.07    0.06    0.07    0.06    0.06    0.06    0.06    0.07   20.08    0.21    0.10    0.09    0.10    0.09    0.10    0.19    1.62    3.61
   15 159    83    80     2    82.8    79.3     3.5     0.0   15.42   65.27    0.09    0.39    3.50   15.02  105.61    5.35    0.00    6.70     2.9     0.1    0.04    0.04    0.04    0.05    0.12    1.46    3.50    2.45    0.15    0.07    0.07    0.07    0.06    0.06    0.06    0.06    0.07    9.14    3.03    0.21    0.10    0.11    0.10    0.11    0.18    1.52    3.56
   15 160    84    80     2    77.8    75.1     2.7     0.0   16.08   65.75    0.09    0.39    3.51   15.68  111.22    5.35    0.00    3.66     1.3     0.3    0.05    0.05    0.04    0.05    0.12    1.37    3.43    1.20    0.14    0.07    0.07    0.07    0.06    0.06    0.06    0.06    0.07    4.87    1.44    0.41    0.12    0.11    0.10    0.11    0.18    1.43    3.50
   15 161    85    80     2    73.1    71.2     2.0     0.0   16.69   66.10    0.09    0.39    3.51   16.29  116.52    5.35    0.00    0.00     0.4     0.2    0.06    0.05    0.05    0.06    0.11    1.27    3.34    0.09    0.12    0.06    0.07    0.07    0.06    0.06    0.06    0.06    0.07    0.09    0.55    0.23    0.12    0.12    0.11    0.12    0.18    1.33    3.41
   15 162    86    80     2    72.3    70.3     1.9     0.0   17.24   66.41    0.09    0.39    3.51   16.84  117.94    5.35    0.00    0.00     0.1     0.1    0.06    0.05    0.05    0.06    0.11    1.19    3.24    0.08    0.11    0.05    0.06    0.07    0.06    0.06    0.06    0.06    0.06    0.08    0.24    0.13    0.12    0.12    0.11    0.12    0.17    1.25    3.31
   15 163    87    80     2    71.7    69.8     1.9     0.0   17.75   66.71    0.09    0.39    3.51   17.36  119.06    5.35    0.00    0.00     0.0     0.0    0.05    0.05    0.05    0.06    0.11    1.10    3.13    0.08    0.10    0.05    0.06    0.06    0.06    0.06    0.06    0.06    0.06    0.08    0.15    0.08    0.11    0.12    0.11    0.12    0.17    1.16    3.19
   15 164    88    80     2    71.1    69.2     1.9     0.0   18.26   67.00    0.09    0.39    3.51   17.86  120.11    5.35    0.00    0.00     0.0     0.0    0.05    0.06    0.05    0.06    0.11    1.03    2.99    0.07    0.10    0.04    0.06    0.06    0.06    0.06    0.06    0.06    0.06    0.08    0.13    0.07    0.11    0.12    0.11    0.12    0.17    1.09    3.06
   15 165    89    80     2    70.6    68.7     1.9     0.0   18.79   67.30    0.09    0.39    3.51   18.39  121.18    5.35    0.00    0.00     0.0     0.0    0.05    0.06    0.05    0.06    0.11    0.96    2.83    0.09    0.10    0.04    0.06    0.06    0.06    0.06    0.06    0.06    0.06    0.09    0.11    0.06    0.11    0.12    0.11    0.12    0.17    1.01    2.89
   15 166    90    80     2    70.1    68.2     1.9     0.0   19.38   67.63    0.09    0.39    3.51   18.98  122.22    5.35    0.00    0.01     0.0     0.0    0.03    0.07    0.06    0.06    0.11    0.89    2.66    0.11    0.14    0.06    0.05    0.06    0.06    0.06    0.06    0.06    0.06    0.12    0.16    0.08    0.08    0.13    0.12    0.12    0.17    0.95    2.72
   15 167    91    80     2    69.6    67.6     2.0     0.0   19.97   67.95    0.09    0.39    3.52   19.58  123.31    5.35    0.00    0.01     0.0     0.0    0.03    0.05    0.06    0.07    0.12    0.82    2.47    0.12    0.17    0.08    0.07    0.06    0.06    0.06    0.06    0.06    0.06    0.13    0.20    0.09    0.09    0.11    0.12    0.13    0.18    0.88    2.53
   15 168    92    80     2    68.9    66.9     2.0     0.0   20.57   68.27    0.09    0.39    3.52   20.17  124.61    5.41    0.00    0.00     0.0     0.0    0.02    0.03    0.04    0.06    0.10    0.74    2.27    0.09    0.16    0.07    0.07    0.06    0.05    0.05    0.06    0.06    0.06    0.09    0.19    0.09    0.09    0.09    0.09    0.11    0.16    0.80    2.32
   15 169    93    80     2    68.0    66.1     1.9     0.0   21.12   68.56    0.09    0.39    3.52   20.72  126.02    5.41    0.00    0.00     0.0     0.0    0.02    0.03    0.04    0.05    0.09    0.67    2.07    0.08    0.13    0.06    0.06    0.05    0.05    0.05    0.06    0.06    0.06    0.08    0.15    0.08    0.08    0.08    0.08    0.10    0.14    0.72    2.12
   15 170    94    80     2    66.2    64.3     1.8     0.0   21.60   68.82    0.09    0.39    3.52   21.21  127.27    6.48    0.00    0.00     0.0     0.0    0.02    0.02    0.03    0.04    0.07    0.56    1.76    0.10    0.13    0.06    0.05    0.05    0.04    0.05    0.05    0.05    0.05    0.11    0.15    0.08    0.07    0.07    0.07    0.09    0.12    0.61    1.82
   15 171    95    80     2    64.9    63.2     1.7     0.0   22.03   69.05    0.09    0.39    3.52   21.64  128.52    6.92    0.00    0.00     0.0     0.0    0.01    0.02    0.02    0.03    0.06    0.48    1.55    0.06    0.10    0.05    0.04    0.04    0.04    0.04    0.05    0.05    0.05    0.06    0.12    0.06    0.06    0.06    0.06    0.08    0.11    0.53    1.60
   15 172    96    80     2    64.1    62.5     1.6     0.0   22.45   69.27    0.09    0.39    3.52   22.05  129.67    7.00    0.00    0.00     0.0     0.0    0.01    0.01    0.02    0.03    0.05    0.43    1.39    0.06    0.08    0.04    0.04    0.04    0.04    0.04    0.04    0.05    0.05    0.06    0.09    0.05    0.05    0.05    0.05    0.07    0.10    0.48    1.44
   15 173    97    80     2    63.4    61.9     1.5     0.0   22.84   69.47    0.09    0.39    3.52   22.45  130.75    7.00    0.00    0.00     0.0     0.0    0.01    0.01    0.01    0.02    0.05    0.38    1.25    0.06    0.07    0.03    0.03    0.04    0.03    0.04    0.04    0.05    0.05    0.06    0.08    0.04    0.04    0.05    0.05    0.06    0.09    0.43    1.29
   15 174    98    80     2    62.8    61.3     1.5     0.0   23.24   69.67    0.09    0.39    3.52   22.84  131.74    7.00    0.00    0.00     0.0     0.0    0.01    0.01    0.01    0.02    0.04    0.34    1.12    0.08    0.08    0.04    0.03    0.04    0.03    0.04    0.04    0.05    0.04    0.08    0.09    0.05    0.04    0.04    0.04    0.06    0.08    0.39    1.16
   15 175    99    80     2    61.6    60.0     1.5     0.0   23.63   69.86    0.09    0.39    3.52   23.24  132.74    7.64    0.00    0.00     0.0     0.0    0.01    0.01    0.01    0.02    0.04    0.29    0.96    0.07    0.09    0.04    0.03    0.04    0.03    0.04    0.04    0.04    0.04    0.07    0.09    0.05    0.04    0.04    0.04    0.05    0.08    0.33    1.00
   15 176   100    80     2    60.8    59.3     1.5     0.0   24.05   70.06    0.09    0.39    3.52   23.65  133.76    7.79    0.00    0.00     0.0     0.0    0.01    0.01    0.01    0.02    0.03    0.25    0.85    0.06    0.08    0.04    0.03    0.03    0.03    0.04    0.04    0.04    0.04    0.06    0.09    0.05    0.04    0.04    0.04    0.05    0.07    0.30    0.89
   15 177   101    80     2    60.2    58.8     1.5     0.0   24.48   70.25    0.09    0.39    3.52   24.08  134.75    7.79    0.00    0.00     0.0     0.0    0.01    0.01    0.01    0.02    0.03    0.23    0.75    0.06    0.08    0.04    0.03    0.04    0.03    0.04    0.04    0.04    0.04    0.06    0.08    0.04    0.04    0.04    0.04    0.05    0.07    0.27    0.80
   15 178   102    80     2    59.8    58.3     1.5     0.0   24.93   70.45    0.09    0.39    3.52   24.54  135.67    7.79    0.00    0.00     0.0     0.0    0.01    0.01    0.01    0.02    0.03    0.20    0.67    0.07    0.08    0.04    0.04    0.04    0.03    0.04    0.04    0.04    0.04    0.07    0.09    0.04    0.04    0.05    0.04    0.05    0.07    0.25    0.71
   15 179   103    80     2    59.4    57.9     1.5     0.0   25.40   70.67    0.09    0.39    3.52   25.01  136.52    7.79    0.00    0.00     0.0     0.0    0.01    0.01    0.01    0.02    0.03    0.18    0.60    0.07    0.09    0.04    0.04    0.04    0.04    0.04    0.04    0.04    0.04    0.07    0.10    0.04    0.05    0.05    0.05    0.05    0.07    0.23    0.64
   15 180   104    80     2    59.1    57.5     1.6     0.0   25.91   70.90    0.09    0.39    3.52   25.51  137.33    7.79    0.00    0.00     0.0     0.0    0.01    0.01    0.01    0.02    0.03    0.17    0.53    0.08    0.10    0.04    0.04    0.04    0.04    0.04    0.04    0.04    0.04    0.09    0.11    0.05    0.05    0.06    0.05    0.06    0.07    0.21    0.58
   15 181   105    80     2    58.9    57.2     1.7     0.0   26.45   71.16    0.09    0.39    3.52   26.05  138.09    7.79    0.00    0.01     0.0     0.0    0.01    0.01    0.01    0.02    0.03    0.15    0.48    0.10    0.11    0.05    0.05    0.05    0.04    0.04    0.05    0.05    0.04    0.11    0.13    0.06    0.06    0.06    0.06    0.06    0.08    0.20    0.52
   15 182   106    80     2    58.7    57.0     1.8     0.0   27.04   71.46    0.09    0.39    3.52   26.64  138.80    7.79    0.00    0.03     0.0     0.0    0.01    0.02    0.02    0.02    0.03    0.14    0.43    0.12    0.12    0.06    0.05    0.05    0.05    0.05    0.05    0.05    0.05    0.15    0.15    0.07    0.07    0.07    0.06    0.07    0.08    0.19    0.48
   15 183   107   120     3    95.9    57.0    38.9     2.4   27.63   71.81    0.09    0.39    3.89   27.24  139.45    7.79    0.00    0.30     0.0     0.0    0.02    0.02    0.02    0.03    0.04    0.13    0.39   57.55    0.13    0.06    0.06    0.06    0.05    0.05    0.05    0.05    0.05   57.85    0.17    0.08    0.08    0.08    0.07    0.08    0.09    0.18    0.44
   15 184   108   120     3    96.9    64.7    32.1     0.8   28.24   79.86    0.09    0.39    4.36   27.85  140.15    7.79    0.00   12.43     0.1     0.0    0.03    0.03    0.03    0.03    0.04    0.13    0.36   47.01    0.14    0.07    0.06    0.06    0.06    0.06    0.06    0.05    0.05   59.43    0.19    0.10    0.09    0.09    0.08    0.09    0.10    0.18    0.41
   15 185   109   120     3    96.5    71.0    25.5     0.4   28.86   86.47    0.09    0.39    5.23   28.47  140.74    7.79    0.00   22.27     0.1     0.0    0.04    0.04    0.04    0.04    0.05    0.13    0.33   36.55    0.14    0.07    0.06    0.07    0.06    0.06    0.06    0.05    0.05   58.81    0.22    0.11    0.10    0.11    0.09    0.10    0.11    0.18    0.38
   15 186   110   120     3    94.2    76.0    18.2     0.2   29.49   91.79    0.09    0.39    7.71   29.10  141.30    7.79    0.00   30.06     0.1     0.1    0.05    0.05    0.05    0.05    0.06    0.13    0.31   25.18    0.14    0.07    0.07    0.07    0.06    0.06    0.06    0.06    0.05   55.24    0.24    0.13    0.11    0.12    0.11    0.11    0.12    0.18    0.37
   15 187   111   120     3    86.1    79.5     6.6     0.1   30.12   95.62    0.09    0.39   15.94   29.73  141.84    7.79    0.00   35.35     0.1     0.1    0.06    0.07    0.06    0.06    0.07    0.13    0.30    7.26    0.14    0.07    0.07    0.07    0.06    0.06    0.06    0.06    0.06   42.61    0.27    0.14    0.13    0.13    0.12    0.12    0.13    0.19    0.35
   15 188   112   120     3    86.2    80.5     5.7     0.0   30.74   97.05    0.09    0.39   15.97   30.34  142.37    7.79    0.00   36.81     0.2     0.1    0.08    0.08    0.07    0.07    0.08    0.13    0.28    5.84    0.13    0.06    0.06    0.07    0.06    0.06    0.07    0.06    0.06   42.64    0.30    0.16    0.14    0.15    0.13    0.13    0.14    0.19    0.34
   15 189   113   120     3    82.9    78.9     3.9     0.0   31.40   98.54    0.09    0.39   16.00   31.00  146.40    7.79    0.00   30.63     2.0     0.1    0.09    0.10    0.08    0.09    0.09    0.14    0.28    3.05    0.13    0.06    0.06    0.06    0.06    0.06    0.06    0.06    0.06   33.69    2.10    0.17    0.16    0.16    0.14    0.15    0.15    0.20    0.33
   15 190   114   120     3    79.5    76.4     3.1     0.0   32.04   99.52    0.09    0.39   16.03   31.64  150.39    7.79    0.00   26.13     2.0     0.1    0.11    0.11    0.10    0.10    0.11    0.15    0.29    1.71    0.13    0.05    0.06    0.06    0.06    0.06    0.07    0.06    0.06   27.83    2.11    0.18    0.17    0.18    0.16    0.16    0.17    0.21    0.35
   15 191   115   120     3    80.0    77.1     2.9     0.0   32.60  100.27    0.09    0.39   16.05   32.21  150.41    7.79    0.00   26.64     2.0     0.1    0.13    0.13    0.11    0.12    0.12    0.17    0.31    1.33    0.14    0.05    0.06    0.06    0.06    0.06    0.07    0.07    0.06   27.97    2.11    0.19    0.19    0.19    0.17    0.18    0.19    0.23    0.37
   15 192   116   120     3    80.4    77.7     2.7     0.0   33.08  100.88    0.09    0.39   16.09   32.69  150.41    7.79    0.00   26.96     2.0     0.2    0.14    0.14    0.13    0.13    0.14    0.18    0.32    1.06    0.14    0.05    0.06    0.06    0.06    0.06    0.07    0.07    0.07   28.02    2.13    0.20    0.20    0.21    0.18    0.19    0.21    0.25    0.39
   15 193   117   120     3    80.8    78.3     2.5     0.0   33.51  101.42    0.09    0.39   16.12   33.12  150.41    7.79    0.00   27.22     2.0     0.2    0.15    0.16    0.14    0.14    0.15    0.20    0.33    0.84    0.14    0.05    0.06    0.06    0.06    0.06    0.07    0.07    0.07   28.06    2.14    0.21    0.22    0.22    0.19    0.20    0.22    0.26    0.40
   15 194   118   120     3    81.2    78.8     2.4     0.0   33.89  101.90    0.09    0.39   16.16   33.49  150.41    7.79    0.00   27.41     2.0     0.2    0.17    0.17    0.15    0.16    0.16    0.21    0.35    0.67    0.13    0.05    0.06    0.06    0.05    0.06    0.07    0.07    0.07   28.08    2.15    0.22    0.23    0.23    0.20    0.21    0.23    0.28    0.41
   15 195   119   120     3    81.2    78.9     2.3     0.0   34.26  102.36    0.09    0.39   16.18   33.86  150.74    7.79    0.00   27.24     2.0     0.2    0.18    0.18    0.16    0.17    0.18    0.22    0.35    0.54    0.12    0.05    0.06    0.06    0.05    0.06    0.06    0.07    0.07   27.78    2.15    0.23    0.23    0.24    0.21    0.22    0.24    0.29    0.42
   15 196   120   120     3    80.7    78.6     2.1     0.0   34.65  102.81    0.09    0.39   16.20   34.26  151.57    7.79    0.00   26.82     2.0     0.2    0.19    0.19    0.17    0.18    0.19    0.22    0.35    0.41    0.12    0.05    0.05    0.05    0.05    0.05    0.06    0.06    0.06   27.24    2.12    0.23    0.24    0.25    0.22    0.23    0.25    0.29    0.41
   15 197   121   120     3    80.6    78.6     2.0     0.0   35.07  103.27    0.09    0.39   16.23   34.68  152.04    7.79    0.00   26.86     2.0     0.2    0.20    0.20    0.18    0.19    0.20    0.23    0.35    0.32    0.11    0.04    0.05    0.05    0.05    0.05    0.06    0.06    0.06   27.18    2.11    0.24    0.25    0.25    0.22    0.24    0.25    0.29    0.41
   15 198   122   120     3    80.7    78.7     2.0     0.0   35.49  103.72    0.09    0.39   16.25   35.10  152.43    7.79    0.00   26.95     2.0     0.2    0.21    0.21    0.19    0.20    0.21    0.23    0.34    0.26    0.10    0.04    0.05    0.05    0.04    0.05    0.05    0.06    0.06   27.21    2.10    0.25    0.26    0.26    0.23    0.24    0.26    0.29    0.40
   15 199   123   120     3    80.7    78.8     1.9     0.0   35.91  104.17    0.09    0.39   16.28   35.52  152.77    7.79    0.00   27.03     2.0     0.2    0.22    0.23    0.20    0.21    0.22    0.24    0.35    0.21    0.09    0.04    0.05    0.05    0.04    0.04    0.05    0.06    0.06   27.24    2.09    0.26    0.27    0.27    0.24    0.25    0.27    0.29    0.40
   15 200   124   120     3    80.8    79.0     1.8     0.0   36.32  104.62    0.09    0.39   16.30   35.93  153.08    7.79    0.00   27.10     2.0     0.2    0.24    0.24    0.21    0.22    0.23    0.24    0.35    0.16    0.08    0.04    0.04    0.04    0.04    0.04    0.04    0.06    0.05   27.26    2.09    0.27    0.28    0.28    0.25    0.26    0.28    0.30    0.40
   15 201   125   120     3    80.9    79.2     1.7     0.0   36.73  105.06    0.09    0.39   16.32   36.33  153.36    7.79    0.00   27.16     2.0     0.2    0.25    0.25    0.22    0.23    0.24    0.25    0.36    0.13    0.07    0.04    0.04    0.04    0.03    0.04    0.04    0.05    0.05   27.29    2.09    0.28    0.29    0.29    0.26    0.27    0.28    0.31    0.41
   15 202   126   120     3    81.0    79.3     1.7     0.0   37.12  105.48    0.09    0.39   16.34   36.73  153.63    7.79    0.00   27.21     2.0     0.2    0.26    0.26    0.23    0.24    0.25    0.26    0.36    0.10    0.07    0.04    0.04    0.04    0.03    0.03    0.04    0.05    0.05   27.31    2.09    0.29    0.30    0.30    0.26    0.27    0.29    0.31    0.41
   15 203   127   120     3    81.1    79.5     1.6     0.0   37.52  105.90    0.09    0.39   16.36   37.12  153.89    7.79    0.00   27.26     2.0     0.3    0.27    0.27    0.24    0.25    0.26    0.27    0.37    0.07    0.06    0.04    0.03    0.03    0.03    0.03    0.03    0.05    0.05   27.33    2.08    0.29    0.30    0.31    0.27    0.28    0.30    0.32    0.42
   15 204   128   120     3    81.2    79.7     1.6     0.0   37.89  106.30    0.09    0.39   16.38   37.50  154.13    7.79    0.00   27.30     2.0     0.3    0.28    0.28    0.25    0.26    0.27    0.29    0.38    0.05    0.06    0.04    0.03    0.03    0.03    0.03    0.03    0.04    0.04   27.35    2.08    0.30    0.31    0.32    0.28    0.29    0.31    0.33    0.43
   15 205   129   120     3    81.3    79.8     1.5     0.0   38.26  106.68    0.09    0.39   16.40   37.86  154.35    7.79    0.00   27.34     2.0     0.3    0.29    0.29    0.26    0.27    0.28    0.30    0.39    0.04    0.05    0.04    0.03    0.03    0.03    0.03    0.03    0.04    0.04   27.37    2.08    0.31    0.32    0.32    0.28    0.30    0.31    0.34    0.43
   15 206   130   120     3    81.5    80.0     1.5     0.0   38.61  107.05    0.09    0.39   16.41   38.22  154.56    7.79    0.00   27.37     2.0     0.3    0.30    0.30    0.26    0.28    0.29    0.31    0.40    0.04    0.05    0.04    0.03    0.03    0.03    0.03    0.03    0.04    0.04   27.41    2.08    0.32    0.33    0.33    0.29    0.30    0.32    0.34    0.44
   15 207   131   120     3    81.6    80.1     1.5     0.0   38.95  107.40    0.09    0.39   16.41   38.55  154.77    7.79    0.00   27.41     2.0     0.3    0.31    0.31    0.27    0.28    0.30    0.32    0.41    0.04    0.05    0.04    0.03    0.03    0.02    0.03    0.03    0.03    0.03   27.45    2.07    0.33    0.34    0.34    0.30    0.31    0.32    0.35    0.44
   15 208   132   120     3    81.7    80.2     1.4     0.0   39.25  107.71    0.09    0.39   16.42   38.85  154.98    7.79    0.00   27.44     2.0     0.3    0.31    0.32    0.28    0.29    0.30    0.32    0.42    0.04    0.05    0.04    0.03    0.03    0.02    0.02    0.02    0.03    0.03   27.48    2.07    0.34    0.34    0.34    0.30    0.31    0.33    0.36    0.45
   15 209   133   120     3    81.4    80.0     1.4     0.0   39.54  108.00    0.09    0.39   16.43   39.15  155.52    7.79    0.00   26.98     2.0     0.3    0.32    0.32    0.28    0.29    0.31    0.33    0.42    0.06    0.05    0.04    0.03    0.03    0.02    0.02    0.02    0.03    0.03   27.04    2.06    0.34    0.35    0.35    0.31    0.32    0.33    0.36    0.45
   15 210   134   120     3    81.4    80.0     1.4     0.0   39.83  108.27    0.09    0.39   16.44   39.43  155.81    7.79    0.00   26.89     2.0     0.3    0.33    0.33    0.29    0.30    0.32    0.34    0.43    0.07    0.05    0.04    0.03    0.03    0.02    0.02    0.02    0.03    0.03   26.96    2.06    0.35    0.35    0.36    0.31    0.32    0.34    0.36    0.46
   15 211   135   120     3    81.3    79.9     1.4     0.0   40.08  108.53    0.09    0.39   16.46   39.69  156.12    7.79    0.00   26.79     2.0     0.3    0.33    0.33    0.29    0.30    0.32    0.34    0.44    0.07    0.05    0.04    0.03    0.03    0.02    0.02    0.02    0.03    0.03   26.86    2.05    0.36    0.36    0.36    0.32    0.33    0.34    0.37    0.46
   15 212   136   120     3    81.3    80.0     1.4     0.0   40.32  108.77    0.09    0.39   16.46   39.93  156.35    7.79    0.00   26.83     2.0     0.3    0.34    0.34    0.30    0.31    0.32    0.35    0.44    0.08    0.05    0.04    0.03    0.03    0.02    0.02    0.02    0.03    0.03   26.91    2.04    0.36    0.36    0.37    0.32    0.33    0.35    0.37    0.47
   15 213   137   120     3    81.3    80.0     1.4     0.0   40.56  109.01    0.09    0.39   16.46   40.16  156.58    7.79    0.00   26.87     2.0     0.3    0.34    0.34    0.30    0.31    0.33    0.35    0.44    0.09    0.05    0.04    0.03    0.03    0.02    0.02    0.02    0.03    0.03   26.95    2.04    0.37    0.37    0.37    0.32    0.34    0.35    0.38    0.47
   15 214   138   120     3    81.3    80.0     1.4     0.0   40.79  109.24    0.09    0.39   16.46   40.39  156.83    7.79    0.00   26.90     2.0     0.3    0.35    0.35    0.31    0.32    0.33    0.36    0.45    0.09    0.05    0.04    0.03    0.03    0.02    0.02    0.02    0.03    0.03   26.99    2.03    0.37    0.37    0.38    0.33    0.34    0.35    0.38    0.47
   15 215   139   120     3    81.3    79.9     1.4     0.0   41.03  109.48    0.09    0.39   16.47   40.63  157.08    7.79    0.00   26.94     2.0     0.3    0.35    0.35    0.31    0.32    0.34    0.36    0.45    0.09    0.05    0.04    0.03    0.03    0.02    0.02    0.02    0.02    0.02   27.03    2.02    0.38    0.38    0.38    0.33    0.34    0.36    0.38    0.48
   15 216   140   120     3    81.3    79.9     1.4     0.0   41.28  109.72    0.09    0.39   16.47   40.88  157.35    7.79    0.00   26.98     2.0     0.3    0.36    0.36    0.31    0.32    0.34    0.36    0.46    0.09    0.05    0.04    0.03    0.03    0.02    0.02    0.02    0.02    0.02   27.07    2.02    0.38    0.38    0.39    0.34    0.35    0.36    0.39    0.48
   15 217   141   120     3    81.3    79.9     1.4     0.0   41.55  109.99    0.09    0.39   16.47   41.16  157.63    7.79    0.00   27.02     2.0     0.4    0.36    0.36    0.32    0.33    0.35    0.37    0.46    0.09    0.05    0.04    0.03    0.03    0.02    0.02    0.02    0.02    0.02   27.11    2.01    0.39    0.39    0.39    0.34    0.35    0.37    0.39    0.49
   15 218   142   120     3    81.3    79.9     1.4     0.0   41.84  110.26    0.09    0.39   16.47   41.45  157.91    7.79    0.00   27.06     2.0     0.4    0.37    0.37    0.32    0.34    0.35    0.37    0.47    0.09    0.05    0.04    0.03    0.03    0.02    0.02    0.02    0.02    0.02   27.15    2.01    0.40    0.40    0.40    0.35    0.36    0.37    0.40    0.49
   15 219   143   120     3    81.3    79.9     1.4     0.0   42.16  110.56    0.09    0.39   16.49   41.76  158.21    7.79    0.00   27.10     2.0     0.4    0.37    0.38    0.33    0.34    0.36    0.38    0.47    0.07    0.05    0.04    0.03    0.03    0.02    0.02    0.02    0.02    0.02   27.16    2.01    0.41    0.40    0.40    0.35    0.36    0.38    0.40    0.50
   15 220   144   120     3    81.3    79.9     1.4     0.0   42.49  110.87    0.09    0.39   16.50   42.09  158.51    7.79    0.00   27.13     2.0     0.4    0.38    0.38    0.34    0.35    0.36    0.39    0.48    0.05    0.05    0.04    0.03    0.03    0.02    0.02    0.02    0.02    0.02   27.18    2.00    0.41    0.41    0.41    0.36    0.37    0.38    0.41    0.50
   15 221   145   120     3    81.3    80.0     1.4     0.0   42.84  111.20    0.09    0.39   16.51   42.45  158.82    7.79    0.00   27.17     2.0     0.4    0.39    0.39    0.34    0.35    0.37    0.39    0.49    0.05    0.05    0.04    0.03    0.03    0.02    0.02    0.02    0.02    0.02   27.22    2.00    0.42    0.42    0.42    0.37    0.38    0.39    0.42    0.51
   15 222   146   120     3    81.4    80.0     1.4     0.0   43.20  111.55    0.09    0.39   16.52   42.81  159.12    7.79    0.00   27.21     2.0     0.4    0.40    0.40    0.35    0.36    0.37    0.40    0.49    0.04    0.05    0.04    0.03    0.03    0.02    0.02    0.02    0.02    0.02   27.25    2.00    0.43    0.43    0.43    0.37    0.38    0.40    0.42    0.52
   15 223   147   120     3    81.4    80.1     1.4     0.0   43.57  111.90    0.09    0.39   16.53   43.18  159.42    7.79    0.00   27.24     2.0     0.4    0.41    0.41    0.36    0.37    0.38    0.41    0.50    0.04    0.04    0.04    0.03    0.03    0.02    0.02    0.02    0.02    0.02   27.28    2.00    0.44    0.44    0.44    0.38    0.39    0.40    0.43    0.52
   15 224   148   120     3    81.5    80.1     1.4     0.0   43.94  112.25    0.09    0.39   16.54   43.55  159.71    7.79    0.00   27.28     2.0     0.4    0.42    0.42    0.36    0.37    0.39    0.41    0.50    0.03    0.04    0.04    0.03    0.03    0.02    0.02    0.02    0.02    0.02   27.31    2.00    0.45    0.44    0.44    0.39    0.40    0.41    0.44    0.53
   15 225   149   120     3    81.9    80.5     1.4     0.0   44.31  112.60    0.09    0.39   16.55   43.91  159.71    7.79    0.00   27.31     2.0     0.4    0.42    0.43    0.37    0.38    0.39    0.42    0.51    0.03    0.04    0.04    0.03    0.03    0.02    0.02    0.02    0.02    0.02   27.34    2.00    0.46    0.45    0.45    0.39    0.40    0.42    0.44    0.53
   15 226   150   120     3    82.2    80.8     1.4     0.0   44.67  112.95    0.09    0.39   16.56   44.28  159.71    7.79    0.00   27.34     1.9     0.4    0.43    0.43    0.38    0.39    0.40    0.43    0.52    0.03    0.04    0.04    0.03    0.03    0.02    0.02    0.02    0.02    0.02   27.37    1.99    0.47    0.46    0.46    0.40    0.41    0.42    0.45    0.54
   15 227   151   120     3    82.6    81.2     1.4     0.0   45.07  113.30    0.09    0.39   16.56   44.67  159.71    7.79    0.00   27.38     1.9     0.4    0.44    0.44    0.38    0.39    0.41    0.43    0.52    0.08    0.04    0.04    0.03    0.03    0.02    0.02    0.02    0.02    0.02   27.46    1.99    0.48    0.47    0.47    0.41    0.42    0.43    0.46    0.55
   15 228   152   120     3    83.0    81.5     1.4     0.0   45.45  113.66    0.09    0.39   16.58   45.06  159.71    7.79    0.00   26.41     2.4     0.5    0.45    0.45    0.39    0.40    0.41    0.44    0.53    0.09    0.05    0.04    0.03    0.03    0.02    0.02    0.02    0.02    0.02   26.49    2.49    0.49    0.48    0.48    0.41    0.42    0.44    0.46    0.55
   15 229   153   120     3    83.3    81.9     1.5     0.0   45.85  113.99    0.09    0.39   16.60   45.45  159.71    7.79    0.00   23.17     4.1     0.5    0.45    0.46    0.40    0.41    0.42    0.45    0.54    0.15    0.05    0.04    0.03    0.03    0.02    0.02    0.02    0.02    0.02   23.32    4.11    0.50    0.48    0.48    0.42    0.43    0.44    0.47    0.56
   15 230   154   120     3    83.7    82.2     1.5     0.0   46.21  114.31    0.09    0.39   16.63   45.81  159.71    7.79    0.00   22.46     4.5     0.5    0.46    0.46    0.40    0.41    0.42    0.45    0.55    0.17    0.05    0.04    0.03    0.03    0.02    0.02    0.02    0.02    0.02   22.62    4.52    0.50    0.49    0.48    0.42    0.43    0.45    0.48    0.57
   15 231   155   120     3    84.0    82.5     1.5     0.0   46.54  114.61    0.09    0.39   16.67   46.15  159.71    7.79    0.00   24.14     3.7     0.5    0.46    0.45    0.40    0.41    0.43    0.46    0.57    0.16    0.05    0.04    0.03    0.03    0.02    0.02    0.02    0.02    0.02   24.30    3.79    0.51    0.49    0.48    0.43    0.44    0.45    0.48    0.59
   15 232   156   120     3    84.2    82.8     1.5     0.0   46.84  114.88    0.09    0.39   16.70   46.45  159.71    7.79    0.00   24.22     3.7     0.5    0.46    0.46    0.41    0.42    0.43    0.46    0.57    0.15    0.06    0.04    0.03    0.03    0.02    0.02    0.02    0.02    0.02   24.38    3.78    0.52    0.49    0.48    0.43    0.44    0.46    0.49    0.60
   15 233   157   120     3    84.5    83.0     1.5     0.0   47.12  115.15    0.09    0.39   16.70   46.73  159.71    7.79    0.00   24.30     3.7     0.5    0.47    0.46    0.41    0.42    0.44    0.47    0.58    0.19    0.06    0.04    0.03    0.03    0.02    0.02    0.02    0.02    0.02   24.49    3.77    0.52    0.50    0.49    0.43    0.44    0.46    0.49    0.60
   15 234   158   120     3    84.8    83.3     1.5     0.0   47.39  115.41    0.09    0.39   16.70   47.00  159.71    7.79    0.00   24.38     3.7     0.5    0.47    0.46    0.42    0.43    0.44    0.47    0.58    0.20    0.06    0.04    0.03    0.03    0.02    0.02    0.02    0.02    0.02   24.59    3.75    0.53    0.50    0.49    0.44    0.45    0.46    0.50    0.61
   15 235   159   120     3    85.1    83.6     1.5     0.0   47.67  115.68    0.09    0.39   16.71   47.27  159.71    7.79    0.00   24.47     3.7     0.5    0.48    0.47    0.42    0.43    0.45    0.48    0.59    0.21    0.06    0.04    0.03    0.03    0.02    0.02    0.02    0.02    0.02   24.69    3.74    0.53    0.51    0.50    0.44    0.45    0.47    0.50    0.61
   15 236   160   120     3    85.3    83.8     1.5     0.0   47.97  115.96    0.09    0.39   16.71   47.57  159.71    7.79    0.00    9.89     9.9     2.5    0.48    0.47    0.42    0.43    0.45    0.48    0.59    0.24    0.06    0.04    0.03    0.03    0.02    0.02    0.02    0.02    0.02   10.13    9.96    2.50    0.51    0.50    0.45    0.46    0.47    0.50    0.61
   15 237   161   120     3    85.7    84.1     1.6     0.0   48.36  116.25    0.09    0.39   16.72   47.97  159.71    7.79    0.00   10.74     9.2     3.1    0.48    0.47    0.43    0.44    0.46    0.49    0.61    0.27    0.12    0.04    0.03    0.03    0.02    0.02    0.02    0.02    0.02   11.02    9.37    3.18    0.51    0.50    0.45    0.46    0.48    0.51    0.64

*DSSAT Cropping System Model Ver. 4.8.5.000 -release  FEB 02, 2026 11:46:55

*RUN   2        : 2                         WHAPS048 TUDU1501    2
 MODEL          : WHAPS048 - Wheat
 EXPERIMENT     : TUDU1501 WH
 DATA PATH      :
 TREATMENT  2   : 2                         WHAPS048
  
!                                                                                                                                      NO3 (ppm) at soil dep. (cm):                                                    NH4 (ppm) at soil dep. (cm):                                                    Total Inorganic N @dep(ppm):
!                                                                                                                                       0-5    5-15   15-20   20-30   30-40   40-50   50-60   60-70   70-90  90-210     0-5    5-15   15-20   20-30   30-40   40-50   50-60   60-70   70-90  90-210     0-5    5-15   15-20   20-30   30-40   40-50   50-60   60-70   70-90  90-210
@YEAR DOY   DAS  NAPC  NI#M    NIAD    NITD    NHTD   NURTD    NMNC    NITC    NDNC    NIMC    AMLC   NNMNC    NUCM    NLCC    TDNC    NI1D    NI2D    NI3D    NI4D    NI5D    NI6D    NI7D    NI8D    NI9D    NI10    NH1D    NH2D    NH3D    NH4D    NH5D    NH6D    NH7D    NH8D    NH9D    NH10    NT1D    NT2D    NT3D    NT4D    NT5D    NT6D    NT7D    NT8D    NT9D    NT10    
   15 076     0     0     0   102.6    93.5     9.1     0.0    0.00    0.00    0.00    0.00    0.00    0.00    0.00    0.00    0.00    3.10     3.1     3.1    3.10    3.10    3.10    3.10    3.10    3.10    3.10    0.30    0.30    0.30    0.30    0.30    0.30    0.30    0.30    0.30    0.30    3.40    3.40    3.40    3.40    3.40    3.40    3.40    3.40    3.40    3.40
   15 077     1     0     0   102.6    94.7     7.9     0.0    0.07    1.12    0.00    0.06    0.00    0.01    0.00    0.00    0.00    3.13     3.1     3.1    3.14    3.13    3.14    3.14    3.14    3.14    3.14    0.24    0.24    0.26    0.26    0.27    0.26    0.26    0.26    0.26    0.26    3.37    3.37    3.40    3.40    3.40    3.40    3.40    3.40    3.40    3.40
   15 078     2     0     0   102.6    95.6     7.0     0.0    0.13    2.06    0.00    0.10    0.00    0.03    0.00    0.00    0.00    3.79     3.1     3.2    3.13    3.14    3.15    3.15    3.16    3.16    3.16    0.19    0.19    0.23    0.23    0.24    0.23    0.23    0.24    0.23    0.24    3.98    3.27    3.40    3.36    3.38    3.38    3.39    3.39    3.39    3.39
   15 079     3     0     0   102.6    96.4     6.3     0.0    0.19    2.86    0.00    0.13    0.00    0.06    0.00    0.00    0.00    4.45     3.0     3.2    3.11    3.14    3.16    3.16    3.18    3.17    3.18    0.16    0.16    0.21    0.21    0.21    0.21    0.21    0.21    0.21    0.21    4.61    3.18    3.41    3.32    3.36    3.37    3.37    3.39    3.38    3.39
   15 080     4     0     0   102.7    97.1     5.6     0.0    0.23    3.52    0.00    0.15    0.00    0.08    0.00    0.00    0.00    4.47     3.0     3.2    3.13    3.16    3.18    3.18    3.20    3.19    3.20    0.14    0.13    0.19    0.19    0.19    0.19    0.19    0.19    0.19    0.19    4.61    3.18    3.40    3.32    3.36    3.37    3.37    3.39    3.38    3.39
   15 081     5     0     0   102.7    97.6     5.1     0.0    0.26    4.08    0.00    0.16    0.00    0.10    0.00    0.00    0.00    4.53     3.0     3.2    3.14    3.18    3.19    3.20    3.22    3.21    3.22    0.12    0.12    0.17    0.17    0.18    0.17    0.17    0.17    0.17    0.17    4.65    3.16    3.39    3.32    3.36    3.36    3.37    3.39    3.38    3.39
   15 082     6     0     0   102.7    98.1     4.6     0.0    0.28    4.55    0.00    0.16    0.00    0.12    0.00    0.00    0.00    4.58     3.0     3.2    3.16    3.19    3.21    3.21    3.23    3.23    3.23    0.11    0.11    0.16    0.16    0.16    0.16    0.16    0.16    0.16    0.16    4.69    3.15    3.39    3.31    3.35    3.36    3.37    3.39    3.38    3.39
   15 083     7     0     0   102.7    98.5     4.2     0.0    0.29    4.96    0.00    0.16    0.00    0.12    0.00    0.00    0.00    4.64     3.0     3.2    3.16    3.20    3.22    3.23    3.24    3.24    3.25    0.10    0.10    0.15    0.15    0.15    0.14    0.15    0.15    0.14    0.14    4.75    3.13    3.38    3.31    3.35    3.36    3.37    3.39    3.38    3.39
   15 084     8     0     0   102.7    98.9     3.9     0.0    0.29    5.33    0.00    0.16    0.00    0.13    0.00    0.00    0.00    4.70     3.0     3.2    3.17    3.21    3.23    3.24    3.25    3.25    3.26    0.09    0.09    0.14    0.13    0.14    0.13    0.13    0.13    0.13    0.13    4.80    3.12    3.38    3.31    3.35    3.36    3.37    3.39    3.38    3.39
   15 085     9     0     0   102.7    99.2     3.5     0.0    0.31    5.68    0.00    0.16    0.00    0.14    0.00    0.00    0.00    4.76     3.0     3.2    3.18    3.22    3.24    3.25    3.27    3.26    3.27    0.09    0.09    0.13    0.12    0.13    0.12    0.12    0.12    0.12    0.12    4.85    3.10    3.37    3.30    3.35    3.36    3.37    3.39    3.38    3.39
   15 086    10     0     0   102.7    99.5     3.2     0.0    0.32    6.01    0.00    0.16    0.00    0.16    0.00    0.00    0.00    4.81     3.0     3.3    3.19    3.23    3.25    3.26    3.28    3.27    3.28    0.08    0.08    0.12    0.11    0.12    0.11    0.11    0.11    0.11    0.11    4.89    3.09    3.37    3.30    3.35    3.36    3.37    3.39    3.38    3.39
   15 087    11     0     0   102.7    99.8     2.9     0.0    0.34    6.31    0.00    0.17    0.00    0.17    0.00    0.00    0.00    4.87     3.0     3.3    3.20    3.24    3.26    3.27    3.29    3.28    3.29    0.07    0.07    0.11    0.10    0.11    0.10    0.10    0.10    0.10    0.10    4.94    3.07    3.36    3.30    3.35    3.36    3.37    3.39    3.38    3.39
   15 088    12     0     0   102.8   100.1     2.7     0.0    0.37    6.59    0.00    0.17    0.00    0.20    0.00    0.00    0.00    4.92     3.0     3.3    3.20    3.25    3.27    3.28    3.29    3.29    3.30    0.07    0.06    0.10    0.10    0.10    0.09    0.09    0.09    0.09    0.09    4.99    3.05    3.36    3.30    3.35    3.36    3.37    3.39    3.38    3.39
   15 089    13     0     0   102.8   100.4     2.4     0.0    0.40    6.86    0.00    0.18    0.00    0.22    0.00    0.00    0.00    4.31     3.3     3.3    3.21    3.26    3.27    3.29    3.30    3.30    3.31    0.06    0.05    0.09    0.09    0.09    0.08    0.09    0.09    0.08    0.08    4.37    3.36    3.35    3.29    3.35    3.36    3.37    3.39    3.38    3.39
   15 090    14     0     0   102.6   100.4     2.2     0.0    0.43    7.10    0.00    0.19    0.00    0.24    0.18    0.00    0.00    3.67     3.5     3.3    3.21    3.26    3.28    3.29    3.31    3.31    3.32    0.04    0.04    0.08    0.08    0.08    0.08    0.08    0.08    0.07    0.07    3.72    3.55    3.35    3.29    3.34    3.36    3.37    3.39    3.38    3.39
   15 091    15     0     0   102.6   100.6     2.0     0.0    0.47    7.32    0.00    0.20    0.00    0.26    0.22    0.00    0.00    3.47     3.6     3.4    3.20    3.26    3.28    3.29    3.31    3.31    3.32    0.03    0.03    0.07    0.07    0.07    0.07    0.07    0.07    0.07    0.07    3.50    3.65    3.50    3.27    3.33    3.35    3.36    3.38    3.38    3.39
   15 092    16     0     0   102.5   100.7     1.8     0.0    0.49    7.51    0.00    0.21    0.00    0.28    0.33    0.00    0.00    3.26     3.6     3.7    3.27    3.25    3.28    3.29    3.31    3.31    3.32    0.03    0.02    0.07    0.07    0.07    0.06    0.07    0.07    0.06    0.06    3.28    3.63    3.74    3.33    3.32    3.34    3.35    3.38    3.37    3.38
   15 093    17     0     0   102.5   100.8     1.7     0.0    0.51    7.68    0.00    0.22    0.00    0.29    0.35    0.00    0.00    3.17     3.4     3.6    3.49    3.34    3.28    3.29    3.31    3.31    3.32    0.03    0.02    0.06    0.06    0.06    0.06    0.06    0.06    0.06    0.06    3.20    3.47    3.64    3.55    3.40    3.34    3.35    3.37    3.37    3.38
   15 094    18     0     0   102.5   101.0     1.5     0.0    0.51    7.82    0.00    0.22    0.00    0.30    0.38    0.00    0.00    3.37     3.4     3.7    3.51    3.35    3.27    3.28    3.31    3.30    3.31    0.02    0.02    0.06    0.06    0.06    0.05    0.05    0.06    0.05    0.05    3.39    3.46    3.77    3.57    3.40    3.32    3.33    3.37    3.35    3.37
   15 095    19     0     0   102.4   101.0     1.4     0.0    0.51    7.95    0.00    0.22    0.00    0.30    0.45    0.00    0.00    3.27     3.3     3.6    3.51    3.36    3.39    3.38    3.31    3.30    3.32    0.02    0.02    0.06    0.05    0.05    0.05    0.05    0.05    0.05    0.05    3.30    3.34    3.65    3.56    3.42    3.44    3.43    3.36    3.35    3.36
   15 096    20     0     0   102.4   101.1     1.3     0.0    0.51    8.06    0.00    0.22    0.00    0.30    0.48    0.00    0.00    3.56     3.3     3.5    3.49    3.37    3.40    3.40    3.31    3.30    3.31    0.02    0.02    0.05    0.05    0.05    0.05    0.05    0.05    0.04    0.04    3.58    3.30    3.60    3.54    3.42    3.45    3.45    3.35    3.34    3.36
   15 097    21     0     0   102.4   101.2     1.2     0.0    0.51    8.16    0.00    0.22    0.00    0.30    0.51    0.00    0.00    3.87     3.3     3.5    3.48    3.36    3.39    3.39    3.31    3.29    3.31    0.02    0.01    0.05    0.05    0.05    0.04    0.04    0.04    0.04    0.04    3.89    3.27    3.58    3.52    3.41    3.44    3.44    3.35    3.34    3.35
   15 098    22    40     1   142.3   111.2    31.1     0.0    0.51    8.25    0.00    0.22    0.00    0.30    0.53    0.00    0.00   20.00     3.2     3.5    3.44    3.34    3.38    3.38    3.30    3.29    3.30   46.53    0.01    0.05    0.04    0.04    0.04    0.04    0.04    0.04    0.04   66.53    3.20    3.57    3.48    3.38    3.42    3.42    3.34    3.32    3.34
   15 099    23    40     1   142.3   113.2    29.1     0.0    0.51   10.22    0.00    0.22    0.00    0.30    0.58    0.00    0.00   22.93     3.2     3.5    3.44    3.34    3.38    3.38    3.30    3.29    3.31   43.56    0.01    0.04    0.04    0.04    0.04    0.04    0.04    0.03    0.03   66.50    3.19    3.56    3.48    3.38    3.42    3.42    3.34    3.32    3.34
   15 100    24    40     1   142.1   115.1    26.9     0.0    0.52   12.29    0.00    0.22    0.00    0.30    0.80    0.00    0.00   25.90     3.1     3.5    3.44    3.35    3.38    3.39    3.30    3.29    3.31   40.33    0.01    0.04    0.04    0.04    0.03    0.03    0.03    0.03    0.03   66.22    3.16    3.55    3.48    3.38    3.42    3.42    3.34    3.32    3.34
   15 101    25    40     1   141.4   117.0    24.4     0.0    0.55   14.49    0.00    0.22    0.00    0.32    1.43    0.00    0.00   28.79     3.1     3.5    3.44    3.35    3.39    3.39    3.31    3.29    3.31   36.58    0.01    0.04    0.03    0.03    0.03    0.03    0.03    0.03    0.03   65.37    3.10    3.55    3.47    3.38    3.42    3.42    3.34    3.32    3.34
   15 102    26    40     1   141.0   119.1    21.9     0.0    0.60   16.83    0.00    0.24    0.00    0.36    1.92    0.00    0.00   32.01     3.0     3.5    3.44    3.35    3.39    3.39    3.31    3.30    3.31   32.76    0.00    0.03    0.03    0.03    0.03    0.03    0.03    0.03    0.03   64.77    3.02    3.54    3.47    3.38    3.42    3.42    3.34    3.32    3.34
   15 103    27    40     1   140.4   121.0    19.3     0.0    0.68   19.24    0.00    0.26    0.00    0.42    2.57    0.00    0.00   35.24     2.9     3.5    3.44    3.35    3.39    3.39    3.31    3.30    3.32   28.78    0.00    0.03    0.03    0.03    0.03    0.03    0.03    0.03    0.03   64.03    2.87    3.53    3.47    3.38    3.42    3.42    3.34    3.33    3.34
   15 104    28    40     1   139.7   122.7    17.0     0.0    0.78   21.44    0.00    0.29    0.00    0.49    3.31    0.00    0.00   38.19     2.6     3.5    3.44    3.35    3.39    3.40    3.32    3.30    3.32   25.20    0.00    0.03    0.02    0.03    0.02    0.03    0.03    0.03    0.03   63.40    2.62    3.50    3.46    3.38    3.42    3.43    3.35    3.33    3.35
   15 105    29    40     1   139.3   124.1    15.3     0.0    0.89   23.28    0.00    0.30    0.00    0.58    3.77    0.00    0.00   40.80     2.4     3.4    3.43    3.36    3.40    3.40    3.32    3.31    3.32   22.43    0.00    0.03    0.02    0.03    0.02    0.03    0.03    0.03    0.03   63.22    2.37    3.46    3.45    3.38    3.42    3.43    3.35    3.33    3.35
   15 106    30    40     1   139.1   125.3    13.8     0.0    1.01   24.86    0.00    0.32    0.00    0.69    4.11    0.00    0.00   43.11     2.2     3.4    3.41    3.36    3.40    3.40    3.32    3.31    3.33   20.13    0.00    0.03    0.02    0.03    0.02    0.03    0.03    0.03    0.03   63.24    2.16    3.39    3.43    3.39    3.42    3.43    3.35    3.34    3.36
   15 107    31    40     1   138.9   126.3    12.5     0.0    1.15   26.26    0.00    0.33    0.00    0.83    4.46    0.00    0.00   13.98    15.3     5.6    3.98    3.46    3.43    3.41    3.33    3.31    3.33   18.13    0.00    0.03    0.02    0.03    0.02    0.03    0.03    0.03    0.03   32.10   15.35    5.67    4.00    3.49    3.45    3.43    3.36    3.34    3.36
   15 108    32    40     1   135.0   124.8    10.2     0.0    1.30   27.15    0.00    0.35    0.00    0.94    8.38    0.00    0.00   12.89    13.0     6.8    4.21    3.57    3.47    3.50    3.54    3.49    3.33   14.51    0.00    0.03    0.02    0.03    0.02    0.03    0.03    0.03    0.03   27.41   13.03    6.83    4.23    3.60    3.49    3.53    3.58    3.52    3.36
   15 109    33    40     1   134.3   125.4     8.9     0.0    1.42   28.23    0.00    0.37    0.00    1.05    9.19    0.00    0.00   15.32    11.9     6.9    4.33    3.61    3.48    3.51    3.55    3.52    3.39   12.46    0.00    0.03    0.02    0.03    0.02    0.03    0.03    0.03    0.03   27.79   11.90    6.91    4.35    3.64    3.51    3.54    3.58    3.55    3.42
   15 110    34    40     1   133.5   125.8     7.7     0.0    1.52   29.19    0.00    0.39    0.00    1.14   10.08    0.00    0.00   18.59    11.0     6.5    4.29    3.61    3.46    3.49    3.54    3.51    3.38   10.59    0.00    0.03    0.02    0.03    0.03    0.03    0.03    0.03    0.03   29.17   11.01    6.49    4.31    3.64    3.49    3.52    3.57    3.54    3.41
   15 111    35    40     1   132.1   125.6     6.6     0.0    1.61   29.93    0.00    0.39    0.00    1.21   11.56    0.00    0.00   21.05    10.1     6.1    4.18    3.57    3.44    3.48    3.53    3.50    3.37    8.84    0.00    0.03    0.02    0.03    0.03    0.03    0.03    0.03    0.03   29.89   10.12    6.09    4.20    3.60    3.47    3.51    3.57    3.52    3.40
   15 112    36    40     1   129.9   124.5     5.5     0.0    1.67   30.50    0.00    0.40    0.00    1.28   13.82    0.00    0.00   20.41     9.6     5.9    4.13    3.57    3.45    3.48    3.54    3.50    3.37    7.21    0.00    0.03    0.02    0.03    0.02    0.03    0.03    0.03    0.03   27.62    9.64    5.96    4.15    3.60    3.47    3.51    3.57    3.53    3.40
   15 113    37    40     1   127.5   122.8     4.6     0.0    1.74   30.98    0.00    0.40    0.00    1.34   16.36    0.00    0.00   19.82     8.9     5.7    4.03    3.55    3.45    3.48    3.54    3.50    3.38    5.92    0.00    0.03    0.02    0.03    0.02    0.03    0.03    0.02    0.03   25.74    8.88    5.71    4.05    3.58    3.47    3.51    3.57    3.53    3.41
   15 114    38    40     1   126.3   122.2     4.1     0.0    1.81   31.42    0.00    0.40    0.00    1.42   17.58    0.00    0.00   20.09     8.4     5.5    3.95    3.53    3.45    3.49    3.54    3.51    3.38    5.20    0.00    0.03    0.02    0.03    0.02    0.03    0.03    0.02    0.03   25.29    8.38    5.53    3.98    3.56    3.47    3.51    3.57    3.53    3.41
   15 115    39    40     1   124.5   120.7     3.7     0.0    1.90   31.83    0.00    0.40    0.00    1.50   19.52    0.00    0.00   20.34     7.5     5.1    3.79    3.48    3.45    3.49    3.55    3.51    3.38    4.55    0.00    0.03    0.02    0.03    0.02    0.03    0.03    0.02    0.03   24.89    7.50    5.17    3.82    3.51    3.48    3.52    3.57    3.53    3.41
   15 116    40    40     1   122.1   118.9     3.3     0.0    2.00   32.21    0.00    0.40    0.00    1.61   21.93    0.00    0.00   20.19     6.6     4.7    3.59    3.40    3.45    3.49    3.55    3.51    3.39    3.86    0.01    0.03    0.02    0.03    0.03    0.03    0.03    0.02    0.03   24.05    6.59    4.74    3.61    3.43    3.48    3.52    3.58    3.53    3.41
   15 117    41    40     1   119.6   116.7     2.8     0.0    2.13   32.57    0.00    0.40    0.00    1.74   24.64    0.00    0.00   18.78     6.2     4.3    3.37    3.31    3.45    3.49    3.55    3.51    3.39    3.13    0.01    0.03    0.02    0.03    0.03    0.03    0.03    0.03    0.03   21.91    6.16    4.29    3.39    3.34    3.48    3.52    3.58    3.54    3.42
   15 118    42    40     1   115.2   113.2     2.0     0.0    2.28   32.83    0.00    0.40    0.00    1.89   29.17    0.00    0.00   11.99     7.0     4.1    3.26    3.25    3.45    3.50    3.56    3.52    3.39    1.73    0.01    0.03    0.03    0.03    0.03    0.03    0.03    0.03    0.03   13.72    7.04    4.08    3.28    3.28    3.48    3.53    3.59    3.54    3.42
   15 119    43    40     1   113.0   111.3     1.7     0.0    2.45   33.03    0.00    0.40    0.00    2.05   31.48    0.00    0.00   10.03     6.8     3.9    3.16    3.20    3.43    3.50    3.56    3.52    3.39    1.26    0.02    0.04    0.03    0.04    0.03    0.03    0.03    0.03    0.03   11.29    6.81    3.89    3.19    3.23    3.46    3.53    3.59    3.54    3.42
   15 120    44    40     1   112.0   110.4     1.6     0.0    2.61   33.22    0.00    0.40    0.00    2.21   32.72    0.00    0.00    9.59     6.5     3.7    3.11    3.17    3.42    3.49    3.55    3.51    3.39    0.96    0.03    0.04    0.03    0.04    0.03    0.03    0.04    0.03    0.03   10.55    6.57    3.74    3.14    3.21    3.45    3.52    3.59    3.54    3.42
[...]
   15 185   109     0     0    60.6    58.4     2.2     0.0   28.86   27.33    0.06    0.35    0.00   28.52   56.17   14.23    0.00    0.19     0.1     0.1    0.06    0.07    0.07    0.09    0.14    0.36    0.84    0.18    0.19    0.09    0.08    0.08    0.07    0.07    0.07    0.06    0.06    0.37    0.33    0.15    0.14    0.14    0.14    0.17    0.21    0.42    0.90
   15 186   110     0     0    60.6    58.4     2.2     0.0   29.55   27.86    0.06    0.35    0.00   29.20   56.84   14.23    0.00    0.23     0.2     0.1    0.07    0.08    0.08    0.10    0.14    0.35    0.80    0.17    0.18    0.09    0.08    0.08    0.07    0.07    0.07    0.06    0.06    0.40    0.36    0.17    0.15    0.16    0.15    0.18    0.22    0.41    0.86
   15 187   111     0     0    60.6    58.4     2.2     0.0   30.25   28.44    0.06    0.35    0.00   29.90   57.50   14.23    0.00    0.26     0.2     0.1    0.09    0.09    0.09    0.11    0.15    0.34    0.77    0.17    0.18    0.09    0.08    0.08    0.07    0.08    0.07    0.06    0.06    0.43    0.40    0.19    0.17    0.17    0.16    0.19    0.23    0.40    0.83
   15 188   112     0     0    60.7    58.4     2.3     0.0   30.95   29.03    0.06    0.35    0.00   30.60   58.15   14.23    0.00    0.30     0.3     0.1    0.10    0.11    0.10    0.12    0.16    0.34    0.74    0.16    0.17    0.09    0.08    0.08    0.08    0.08    0.08    0.06    0.06    0.46    0.43    0.21    0.18    0.19    0.18    0.20    0.24    0.40    0.80
   15 189   113     0     0    60.8    58.5     2.3     0.0   31.70   29.66    0.06    0.35    0.00   31.35   58.82   14.23    0.00    0.29     0.3     0.1    0.12    0.12    0.11    0.13    0.17    0.33    0.71    0.19    0.16    0.09    0.08    0.08    0.08    0.08    0.08    0.07    0.06    0.48    0.47    0.22    0.20    0.20    0.19    0.21    0.24    0.40    0.78
   15 190   114     0     0    60.6    58.4     2.3     0.0   32.43   30.23    0.06    0.35    0.00   32.09   59.67   14.23    0.00    0.11     0.3     0.1    0.13    0.13    0.12    0.14    0.18    0.33    0.69    0.17    0.16    0.09    0.08    0.08    0.08    0.08    0.08    0.07    0.06    0.29    0.50    0.24    0.21    0.22    0.20    0.22    0.25    0.39    0.75
   15 191   115     0     0    60.6    58.3     2.3     0.0   33.08   30.74    0.06    0.35    0.00   32.73   60.39   14.23    0.00    0.09     0.4     0.2    0.14    0.14    0.13    0.15    0.18    0.32    0.66    0.18    0.16    0.09    0.08    0.08    0.07    0.08    0.08    0.07    0.06    0.27    0.52    0.25    0.22    0.22    0.21    0.23    0.26    0.39    0.73
   15 192   116     0     0    60.4    58.2     2.2     0.0   33.63   31.20    0.06    0.35    0.00   33.29   61.07   14.23    0.00    0.10     0.4     0.2    0.15    0.15    0.14    0.16    0.18    0.32    0.64    0.18    0.16    0.09    0.08    0.08    0.07    0.08    0.08    0.07    0.06    0.28    0.53    0.26    0.23    0.23    0.21    0.23    0.26    0.38    0.70
   15 193   117     0     0    60.3    58.1     2.2     0.0   34.14   31.64    0.06    0.35    0.00   33.80   61.71   14.23    0.00    0.12     0.4     0.2    0.15    0.15    0.14    0.16    0.18    0.31    0.61    0.19    0.15    0.08    0.08    0.08    0.07    0.08    0.08    0.06    0.06    0.31    0.54    0.26    0.23    0.23    0.21    0.24    0.26    0.37    0.68
   15 194   118     0     0    60.2    58.0     2.2     0.0   34.60   32.05    0.06    0.35    0.00   34.25   62.30   14.23    0.00    0.15     0.4     0.2    0.16    0.16    0.14    0.16    0.19    0.30    0.59    0.19    0.15    0.08    0.08    0.08    0.07    0.08    0.08    0.06    0.06    0.34    0.55    0.27    0.24    0.24    0.21    0.24    0.26    0.37    0.65
   15 195   119     0     0    60.1    57.9     2.2     0.0   35.06   32.46    0.06    0.35    0.00   34.71   62.88   14.23    0.00    0.18     0.4     0.2    0.17    0.17    0.15    0.17    0.19    0.30    0.57    0.20    0.14    0.08    0.07    0.08    0.07    0.07    0.07    0.06    0.06    0.38    0.56    0.28    0.24    0.24    0.22    0.24    0.26    0.36    0.63
   15 196   120     0     0    60.0    57.8     2.2     0.0   35.56   32.90    0.06    0.35    0.00   35.21   63.44   14.23    0.00    0.23     0.4     0.2    0.17    0.17    0.15    0.17    0.19    0.29    0.55    0.20    0.14    0.08    0.07    0.07    0.07    0.07    0.07    0.06    0.06    0.42    0.57    0.28    0.25    0.25    0.22    0.24    0.27    0.36    0.62
   15 197   121     0     0    60.0    57.8     2.2     0.0   36.09   33.38    0.06    0.35    0.00   35.74   63.97   14.23    0.00    0.27     0.5     0.2    0.18    0.18    0.16    0.18    0.20    0.29    0.54    0.20    0.13    0.08    0.07    0.07    0.07    0.07    0.08    0.06    0.06    0.47    0.59    0.30    0.26    0.26    0.23    0.25    0.27    0.36    0.60
   15 198   122     0     0    60.0    57.9     2.2     0.0   36.64   33.87    0.06    0.35    0.00   36.29   64.48   14.23    0.00    0.32     0.5     0.2    0.20    0.19    0.17    0.18    0.20    0.29    0.53    0.20    0.13    0.07    0.07    0.07    0.07    0.07    0.08    0.06    0.06    0.52    0.61    0.31    0.27    0.27    0.24    0.26    0.28    0.36    0.59
   15 199   123     0     0    60.1    58.0     2.1     0.0   37.19   34.39    0.06    0.35    0.00   36.85   64.97   14.23    0.00    0.37     0.5     0.3    0.21    0.21    0.18    0.19    0.21    0.29    0.52    0.20    0.12    0.07    0.07    0.07    0.07    0.07    0.08    0.07    0.06    0.57    0.62    0.32    0.28    0.28    0.24    0.27    0.29    0.36    0.58
   15 200   124     0     0    60.2    58.1     2.1     0.0   37.76   34.93    0.06    0.35    0.00   37.41   65.43   14.23    0.00    0.42     0.5     0.3    0.22    0.22    0.19    0.20    0.22    0.29    0.51    0.19    0.11    0.07    0.07    0.07    0.07    0.07    0.08    0.07    0.06    0.61    0.64    0.33    0.29    0.29    0.25    0.28    0.29    0.36    0.57
   15 201   125     0     0    60.3    58.2     2.1     0.0   38.33   35.47    0.06    0.35    0.00   37.98   65.88   14.23    0.00    0.46     0.6     0.3    0.24    0.23    0.20    0.21    0.23    0.30    0.50    0.18    0.10    0.06    0.06    0.07    0.07    0.07    0.08    0.07    0.06    0.65    0.66    0.34    0.30    0.30    0.27    0.29    0.30    0.37    0.57
   15 202   126     0     0    60.5    58.4     2.1     0.0   38.89   36.01    0.06    0.35    0.00   38.55   66.31   14.23    0.00    0.50     0.6     0.3    0.25    0.25    0.21    0.22    0.24    0.30    0.50    0.18    0.10    0.06    0.06    0.06    0.06    0.07    0.07    0.07    0.07    0.68    0.68    0.36    0.31    0.31    0.28    0.30    0.31    0.37    0.56
   15 203   127     0     0    60.6    58.5     2.1     0.0   39.46   36.56    0.06    0.35    0.00   39.11   66.73   14.23    0.00    0.54     0.6     0.3    0.27    0.26    0.22    0.23    0.25    0.31    0.49    0.17    0.09    0.05    0.06    0.06    0.06    0.07    0.07    0.07    0.07    0.71    0.69    0.37    0.33    0.33    0.29    0.31    0.32    0.38    0.56
   15 204   128     0     0    60.8    58.7     2.1     0.0   40.02   37.11    0.06    0.35    0.00   39.67   67.13   14.23    0.00    0.58     0.6     0.3    0.28    0.28    0.24    0.25    0.26    0.31    0.49    0.16    0.09    0.05    0.06    0.06    0.06    0.07    0.07    0.07    0.07    0.74    0.71    0.38    0.34    0.34    0.30    0.32    0.33    0.38    0.56
   15 205   129     0     0    60.9    58.9     2.0     0.0   40.57   37.65    0.06    0.35    0.00   40.23   67.51   14.23    0.00    0.62     0.6     0.3    0.30    0.29    0.25    0.26    0.27    0.32    0.49    0.16    0.08    0.05    0.05    0.06    0.06    0.07    0.07    0.07    0.07    0.78    0.72    0.39    0.35    0.35    0.31    0.33    0.34    0.39    0.56
   15 206   130     0     0    61.1    59.1     2.0     0.0   41.12   38.17    0.06    0.35    0.00   40.77   67.88   14.23    0.00    0.66     0.7     0.4    0.31    0.31    0.26    0.27    0.28    0.32    0.49    0.16    0.08    0.05    0.05    0.06    0.06    0.07    0.07    0.07    0.07    0.82    0.74    0.40    0.36    0.36    0.32    0.34    0.35    0.39    0.55
   15 207   131     0     0    61.2    59.2     2.0     0.0   41.63   38.67    0.06    0.35    0.00   41.28   68.25   14.23    0.00    0.70     0.7     0.4    0.33    0.32    0.27    0.28    0.29    0.33    0.49    0.15    0.07    0.04    0.05    0.05    0.06    0.07    0.07    0.07    0.07    0.85    0.75    0.41    0.38    0.37    0.33    0.35    0.36    0.40    0.55
   15 208   132     0     0    61.3    59.4     2.0     0.0   42.08   39.12    0.06    0.35    0.00   41.74   68.60   14.23    0.00    0.73     0.7     0.4    0.34    0.33    0.28    0.29    0.30    0.33    0.48    0.15    0.07    0.04    0.05    0.05    0.06    0.07    0.07    0.07    0.07    0.88    0.76    0.42    0.38    0.38    0.34    0.35    0.37    0.40    0.55
   15 209   133     0     0    61.4    59.5     2.0     0.0   42.52   39.54    0.06    0.35    0.00   42.17   68.95   14.23    0.00    0.76     0.7     0.4    0.35    0.34    0.29    0.29    0.30    0.34    0.48    0.16    0.07    0.04    0.05    0.05    0.05    0.07    0.07    0.07    0.07    0.92    0.77    0.43    0.39    0.39    0.34    0.36    0.37    0.40    0.55
   15 210   134     0     0    61.5    59.5     2.0     0.0   42.94   39.94    0.06    0.35    0.00   42.59   69.30   14.23    0.00    0.78     0.7     0.4    0.36    0.35    0.30    0.30    0.31    0.34    0.48    0.17    0.07    0.04    0.05    0.05    0.05    0.06    0.07    0.07    0.06    0.95    0.78    0.43    0.40    0.40    0.35    0.37    0.38    0.40    0.54
   15 211   135     0     0    61.5    59.6     1.9     0.0   43.32   40.31    0.06    0.35    0.00   42.97   69.66   14.23    0.00    0.78     0.7     0.4    0.36    0.36    0.30    0.31    0.31    0.34    0.48    0.18    0.06    0.04    0.04    0.05    0.05    0.06    0.07    0.06    0.06    0.96    0.78    0.44    0.41    0.41    0.36    0.37    0.38    0.40    0.54
   15 212   136     0     0    61.5    59.6     1.9     0.0   43.67   40.66    0.06    0.35    0.00   43.32   69.99   14.23    0.00    0.81     0.7     0.4    0.37    0.37    0.31    0.31    0.32    0.34    0.47    0.19    0.06    0.04    0.04    0.05    0.05    0.06    0.07    0.06    0.06    0.99    0.78    0.44    0.41    0.41    0.36    0.37    0.38    0.40    0.54
   15 213   137     0     0    61.6    59.7     1.9     0.0   44.01   41.00    0.06    0.35    0.00   43.67   70.30   14.23    0.00    0.84     0.7     0.4    0.38    0.37    0.32    0.32    0.32    0.34    0.47    0.19    0.06    0.04    0.04    0.05    0.05    0.06    0.07    0.06    0.06    1.03    0.79    0.45    0.42    0.42    0.37    0.38    0.39    0.40    0.53
   15 214   138     0     0    61.6    59.7     1.9     0.0   44.35   41.34    0.06    0.35    0.00   44.00   70.61   14.23    0.00    0.88     0.7     0.4    0.38    0.38    0.32    0.32    0.32    0.34    0.47    0.19    0.06    0.04    0.04    0.04    0.05    0.06    0.06    0.06    0.06    1.07    0.79    0.45    0.43    0.43    0.37    0.38    0.39    0.40    0.53
   15 215   139     0     0    61.6    59.8     1.9     0.0   44.69   41.67    0.06    0.35    0.00   44.34   70.91   14.23    0.00    0.92     0.7     0.4    0.39    0.39    0.33    0.33    0.33    0.34    0.46    0.19    0.06    0.04    0.04    0.04    0.05    0.06    0.06    0.06    0.06    1.10    0.80    0.46    0.43    0.43    0.38    0.39    0.39    0.40    0.52
   15 216   140     0     0    61.7    59.9     1.8     0.0   45.05   42.02    0.06    0.35    0.00   44.71   71.20   14.23    0.00    0.95     0.7     0.4    0.40    0.40    0.34    0.33    0.33    0.34    0.46    0.19    0.06    0.04    0.04    0.04    0.05    0.06    0.06    0.06    0.06    1.14    0.80    0.46    0.44    0.44    0.38    0.39    0.40    0.40    0.52
   15 217   141     0     0    61.8    60.0     1.8     0.0   45.45   42.40    0.06    0.35    0.00   45.10   71.48   14.23    0.00    0.99     0.8     0.4    0.41    0.41    0.35    0.34    0.34    0.35    0.46    0.18    0.05    0.04    0.04    0.04    0.05    0.06    0.06    0.06    0.06    1.17    0.80    0.47    0.45    0.45    0.39    0.40    0.40    0.41    0.52
   15 218   142     0     0    61.9    60.1     1.8     0.0   45.86   42.80    0.06    0.35    0.00   45.51   71.76   14.23    0.00    1.03     0.8     0.4    0.42    0.41    0.35    0.35    0.35    0.35    0.46    0.18    0.05    0.04    0.04    0.04    0.04    0.06    0.06    0.06    0.06    1.21    0.81    0.48    0.46    0.46    0.40    0.41    0.41    0.41    0.52
   15 219   143     0     0    62.1    60.3     1.8     0.0   46.30   43.22    0.06    0.35    0.00   45.95   72.03   14.23    0.00    1.06     0.8     0.4    0.43    0.43    0.36    0.36    0.36    0.36    0.46    0.17    0.05    0.04    0.04    0.04    0.04    0.06    0.06    0.06    0.06    1.24    0.81    0.49    0.46    0.46    0.41    0.41    0.42    0.42    0.53
   15 220   144     0     0    62.3    60.5     1.8     0.0   46.76   43.68    0.06    0.35    0.00   46.42   72.29   14.23    0.00    1.10     0.8     0.5    0.44    0.44    0.38    0.37    0.37    0.36    0.47    0.16    0.05    0.04    0.04    0.04    0.04    0.06    0.06    0.06    0.06    1.27    0.82    0.49    0.47    0.47    0.42    0.42    0.43    0.43    0.53
   15 221   145     0     0    62.5    60.7     1.8     0.0   47.25   44.16    0.06    0.35    0.00   46.91   72.55   14.23    0.00    1.15     0.8     0.5    0.45    0.45    0.39    0.38    0.38    0.37    0.47    0.16    0.05    0.04    0.04    0.04    0.04    0.06    0.06    0.06    0.06    1.31    0.83    0.50    0.48    0.48    0.43    0.44    0.44    0.43    0.54
   15 222   146     0     0    62.8    61.0     1.8     0.0   47.75   44.65    0.06    0.35    0.00   47.41   72.80   14.23    0.00    1.19     0.8     0.5    0.46    0.46    0.40    0.39    0.39    0.38    0.48    0.16    0.05    0.04    0.03    0.04    0.04    0.05    0.06    0.06    0.06    1.35    0.83    0.51    0.49    0.49    0.44    0.45    0.45    0.44    0.54
   15 223   147     0     0    63.1    61.2     1.8     0.0   48.26   45.15    0.06    0.35    0.00   47.92   73.05   14.23    0.00    1.23     0.8     0.5    0.47    0.47    0.41    0.41    0.40    0.39    0.49    0.15    0.04    0.04    0.03    0.03    0.04    0.05    0.06    0.06    0.06    1.38    0.84    0.52    0.50    0.50    0.45    0.46    0.46    0.45    0.55
   15 224   148     0     0    63.3    61.5     1.8     0.0   48.77   45.65    0.06    0.35    0.00   48.43   73.30   14.23    0.00    1.27     0.8     0.5    0.48    0.48    0.42    0.42    0.41    0.40    0.49    0.15    0.04    0.04    0.03    0.03    0.04    0.05    0.06    0.06    0.06    1.42    0.85    0.53    0.51    0.51    0.46    0.47    0.47    0.46    0.55
   15 225   149     0     0    63.8    62.0     1.8     0.0   49.27   46.14    0.06    0.35    0.00   48.93   73.30   14.23    0.00    1.31     0.8     0.5    0.49    0.49    0.43    0.43    0.43    0.42    0.51    0.14    0.04    0.04    0.03    0.03    0.04    0.05    0.06    0.06    0.06    1.45    0.85    0.54    0.52    0.53    0.47    0.49    0.49    0.48    0.57
   15 226   150     0     0    64.3    62.5     1.8     0.0   49.77   46.64    0.06    0.35    0.00   49.42   73.30   14.23    0.00    1.34     0.8     0.5    0.50    0.50    0.44    0.45    0.45    0.44    0.53    0.13    0.04    0.04    0.03    0.03    0.04    0.05    0.06    0.06    0.06    1.47    0.86    0.55    0.53    0.54    0.48    0.50    0.51    0.50    0.59
   15 227   151     0     0    64.8    63.0     1.8     0.0   50.30   47.15    0.06    0.35    0.00   49.96   73.30   14.23    0.00    1.40     0.8     0.5    0.51    0.51    0.45    0.47    0.47    0.46    0.55    0.16    0.04    0.04    0.03    0.03    0.03    0.05    0.06    0.06    0.06    1.56    0.87    0.56    0.54    0.55    0.49    0.52    0.53    0.52    0.61
   15 228   152     0     0    65.3    63.5     1.8     0.0   50.82   47.65    0.06    0.35    0.00   50.47   73.30   14.23    0.00    1.38     0.9     0.5    0.52    0.52    0.46    0.48    0.49    0.47    0.57    0.18    0.04    0.04    0.03    0.03    0.03    0.05    0.06    0.06    0.06    1.56    0.91    0.56    0.55    0.56    0.50    0.53    0.55    0.54    0.63
   15 229   153     0     0    65.9    64.0     1.9     0.0   51.33   48.11    0.06    0.35    0.00   50.99   73.30   14.23    0.00    1.27     1.0     0.5    0.53    0.53    0.47    0.50    0.50    0.49    0.58    0.24    0.04    0.04    0.03    0.03    0.03    0.05    0.06    0.06    0.06    1.51    1.00    0.57    0.56    0.56    0.51    0.55    0.56    0.55    0.65
   15 230   154     0     0    66.3    64.4     1.9     0.0   51.80   48.54    0.06    0.35    0.00   51.46   73.30   14.23    0.00    1.37     1.0     0.5    0.53    0.53    0.48    0.51    0.52    0.51    0.60    0.29    0.05    0.04    0.03    0.03    0.03    0.05    0.06    0.06    0.06    1.66    1.03    0.57    0.56    0.57    0.51    0.56    0.58    0.57    0.67
   15 231   155     0     0    66.8    64.8     2.0     0.0   52.24   48.95    0.06    0.35    0.00   51.89   73.30   14.23    0.00    1.78     0.9     0.5    0.53    0.53    0.48    0.51    0.52    0.52    0.63    0.32    0.06    0.04    0.03    0.03    0.03    0.05    0.06    0.06    0.06    2.10    0.96    0.58    0.56    0.56    0.51    0.57    0.58    0.58    0.69
   15 232   156     0     0    67.1    65.2     2.0     0.0   52.62   49.33    0.06    0.35    0.00   52.27   73.30   14.23    0.00    1.86     0.9     0.6    0.54    0.53    0.48    0.52    0.54    0.53    0.64    0.34    0.07    0.04    0.03    0.03    0.03    0.05    0.06    0.06    0.06    2.19    0.97    0.59    0.57    0.56    0.52    0.58    0.60    0.60    0.71
   15 233   157     0     0    67.5    65.5     2.0     0.0   52.98   49.69    0.06    0.35    0.00   52.63   73.30   14.23    0.00    1.93     0.9     0.6    0.54    0.54    0.49    0.53    0.55    0.54    0.65    0.34    0.07    0.04    0.03    0.03    0.03    0.05    0.06    0.06    0.06    2.27    0.98    0.59    0.57    0.57    0.53    0.59    0.61    0.61    0.72
   15 234   158     0     0    67.9    65.9     2.0     0.0   53.33   50.05    0.06    0.35    0.00   52.99   73.30   14.23    0.00    2.00     0.9     0.6    0.55    0.54    0.50    0.54    0.56    0.56    0.67    0.34    0.07    0.04    0.03    0.03    0.03    0.05    0.06    0.06    0.06    2.34    0.99    0.60    0.58    0.58    0.53    0.60    0.62    0.62    0.73
   15 235   159     0     0    68.2    66.3     1.9     0.0   53.69   50.42    0.06    0.35    0.00   53.34   73.30   14.23    0.00    2.07     0.9     0.6    0.55    0.55    0.50    0.55    0.57    0.57    0.68    0.33    0.07    0.04    0.03    0.03    0.03    0.05    0.06    0.06    0.06    2.41    1.00    0.60    0.58    0.58    0.54    0.61    0.63    0.63    0.74
   15 236   160     0     0    68.6    66.6     1.9     0.0   54.07   50.80    0.06    0.35    0.00   53.73   73.30   14.23    0.00    0.91     1.4     0.9    0.56    0.55    0.51    0.56    0.58    0.58    0.69    0.34    0.08    0.04    0.03    0.03    0.03    0.05    0.06    0.06    0.06    1.25    1.45    0.95    0.59    0.59    0.54    0.62    0.64    0.64    0.75
   15 237   161     0     0    69.1    67.0     2.0     0.0   54.56   51.18    0.06    0.35    0.00   54.21   73.30   14.23    0.00    1.13     1.3     1.0    0.56    0.55    0.51    0.57    0.59    0.59    0.72    0.37    0.13    0.04    0.03    0.03    0.03    0.05    0.06    0.06    0.06    1.50    1.46    1.09    0.59    0.58    0.54    0.62    0.65    0.66    0.78
